data/upstream/arpae-go/extracted/Challenge_1_Original_Dataset_2_Scenarios/Original_Dataset_Real-Time_Edition_2/Network_01R-020/scenario_15/case.raw
 0,    100, 33, 0, 0, 60.0 / Header line 1
Header line 2
Header line 3
     1,'',   138, 1, 1, 1, 1, 1.0071039, -102.30412, 1.1, 0.9, 1.1, 0.9
     2,'',   138, 1, 1, 1, 1, 1.0067117, -102.35296, 1.1, 0.9, 1.1, 0.9
     3,'',   138, 1, 1, 1, 1, 1.0019747, -103.73669, 1.1, 0.9, 1.1, 0.9
     4,'',   138, 1, 1, 1, 1, 1.0005141, -103.90698, 1.1, 0.9, 1.1, 0.9
     5,'',   138, 1, 1, 1, 1, 1.0192235, -80.511692, 1.1, 0.9, 1.1, 0.9
     6,'',   138, 1, 1, 1, 1, 1.0191921, -80.515691, 1.1, 0.9, 1.1, 0.9
     7,'',   345, 1, 1, 1, 1, 1.0336642, -98.066329, 1.1, 0.9, 1.1, 0.9
     8,'',   138, 1, 1, 1, 1, 1.0266843, -99.37636, 1.1, 0.9, 1.1, 0.9
     9,'',  13.8, 2, 1, 1, 1, 1.04, -95.964104, 1.1, 0.9, 1.1, 0.9
    10,'',   138, 1, 1, 1, 1, 1.0246674, -103.57242, 1.1, 0.9, 1.1, 0.9
    11,'',   138, 1, 1, 1, 1, 1.0246456, -103.57486, 1.1, 0.9, 1.1, 0.9
    12,'',   138, 1, 1, 1, 1, 1.0094653, -100.42608, 1.1, 0.9, 1.1, 0.9
    13,'',   138, 1, 1, 1, 1, 1.0091194, -100.46599, 1.1, 0.9, 1.1, 0.9
    14,'',   345, 1, 1, 1, 1, 1.0362343, -91.442918, 1.1, 0.9, 1.1, 0.9
    15,'',   138, 1, 1, 1, 1, 1.0305236, -93.555016, 1.1, 0.9, 1.1, 0.9
    16,'',  13.8, 2, 1, 1, 1, 1.04, -88.606957, 1.1, 0.9, 1.1, 0.9
    17,'',  13.8, 3, 1, 1, 1, 1.04, -88.048139, 1.1, 0.9, 1.1, 0.9
    18,'',  13.8, 2, 1, 1, 1, 1.04, -87.16003, 1.1, 0.9, 1.1, 0.9
    19,'',   138, 1, 1, 1, 1, 1.0126409, -103.77942, 1.1, 0.9, 1.1, 0.9
    20,'',   138, 1, 1, 1, 1, 1.0125986, -103.7851, 1.1, 0.9, 1.1, 0.9
    21,'',   138, 1, 1, 1, 1, 1.013637, -101.31644, 1.1, 0.9, 1.1, 0.9
    22,'',   138, 1, 1, 1, 1, 1.0122141, -101.4852, 1.1, 0.9, 1.1, 0.9
    23,'',   345, 1, 1, 1, 1, 1.0351014, -95.793338, 1.1, 0.9, 1.1, 0.9
    24,'',   138, 1, 1, 1, 1, 1.0273822, -97.534803, 1.1, 0.9, 1.1, 0.9
    25,'',   138, 1, 1, 1, 1, 1.027364, -97.537027, 1.1, 0.9, 1.1, 0.9
    26,'',   138, 1, 1, 1, 1, 1.0272121, -97.556593, 1.1, 0.9, 1.1, 0.9
    27,'',   138, 1, 1, 1, 1, 1, -101.59279, 1.1, 0.9, 1.1, 0.9
    28,'',   138, 1, 1, 1, 1, 0.99943101, -101.66337, 1.1, 0.9, 1.1, 0.9
    29,'',   138, 1, 1, 1, 1, 1.0101669, -103.45853, 1.1, 0.9, 1.1, 0.9
    30,'',   138, 1, 1, 1, 1, 1.0091666, -103.57714, 1.1, 0.9, 1.1, 0.9
    31,'',   138, 1, 1, 1, 1, 1.0104474, -105.53214, 1.1, 0.9, 1.1, 0.9
    32,'',   138, 1, 1, 1, 1, 1.0103583, -105.54283, 1.1, 0.9, 1.1, 0.9
    33,'',   138, 1, 1, 1, 1, 1.0128392, -104.07842, 1.1, 0.9, 1.1, 0.9
    34,'',   138, 1, 1, 1, 1, 1.0126175, -104.10447, 1.1, 0.9, 1.1, 0.9
    35,'',   138, 1, 1, 1, 1, 1.0151998, -104.64907, 1.1, 0.9, 1.1, 0.9
    36,'',   138, 1, 1, 1, 1, 1.014844, -104.69054, 1.1, 0.9, 1.1, 0.9
    37,'',   138, 1, 1, 1, 1, 1.0107196, -87.456074, 1.1, 0.9, 1.1, 0.9
    38,'',   138, 1, 1, 1, 1, 1.0107182, -87.456249, 1.1, 0.9, 1.1, 0.9
    39,'',   345, 1, 1, 1, 1, 1.0365586, -95.963805, 1.1, 0.9, 1.1, 0.9
    40,'',   138, 1, 1, 1, 1, 1.0331013, -96.509836, 1.1, 0.9, 1.1, 0.9
    41,'',   138, 1, 1, 1, 1, 1.0326132, -96.570358, 1.1, 0.9, 1.1, 0.9
    42,'',   138, 1, 1, 1, 1, 1.0230422, -103.09889, 1.1, 0.9, 1.1, 0.9
    43,'',   138, 1, 1, 1, 1, 1.0230063, -103.10324, 1.1, 0.9, 1.1, 0.9
    44,'',   138, 1, 1, 1, 1, 1.0158254, -100.5695, 1.1, 0.9, 1.1, 0.9
    45,'',   138, 1, 1, 1, 1, 1.0158029, -100.57231, 1.1, 0.9, 1.1, 0.9
    46,'',   138, 1, 1, 1, 1, 1.0224756, -98.821782, 1.1, 0.9, 1.1, 0.9
    47,'',   138, 1, 1, 1, 1, 1.0221405, -98.862352, 1.1, 0.9, 1.1, 0.9
    48,'',   138, 1, 1, 1, 1, 1.0032806, -102.70212, 1.1, 0.9, 1.1, 0.9
    49,'',  13.8, 2, 1, 1, 1, 1.0051259, -102.50097, 1.1, 0.9, 1.1, 0.9
    50,'',  13.8, 2, 1, 1, 1, 1.0054286, -102.4655, 1.1, 0.9, 1.1, 0.9
    51,'',   138, 1, 1, 1, 1, 1.0032772, -102.70254, 1.1, 0.9, 1.1, 0.9
    52,'',   138, 1, 1, 1, 1, 1.0030697, -102.72743, 1.1, 0.9, 1.1, 0.9
    53,'',   138, 1, 1, 1, 1, 1.0166419, -102.51545, 1.1, 0.9, 1.1, 0.9
    54,'',   138, 1, 1, 1, 1, 1.0162964, -102.5529, 1.1, 0.9, 1.1, 0.9
    55,'',   138, 1, 1, 1, 1, 1.0247637, -101.72917, 1.1, 0.9, 1.1, 0.9
    56,'',   138, 1, 1, 1, 1, 1.0247437, -101.73148, 1.1, 0.9, 1.1, 0.9
    57,'',   345, 1, 1, 1, 1, 1.0238958, -97.34185, 1.1, 0.9, 1.1, 0.9
    58,'',   138, 1, 1, 1, 1, 1.0158999, -99.036895, 1.1, 0.9, 1.1, 0.9
    59,'',   138, 1, 1, 1, 1, 1.0144228, -99.222538, 1.1, 0.9, 1.1, 0.9
    60,'',   138, 1, 1, 1, 1, 1.0311744, -96.780526, 1.1, 0.9, 1.1, 0.9
    61,'',   138, 1, 1, 1, 1, 1.0311729, -96.780719, 1.1, 0.9, 1.1, 0.9
    62,'',   138, 1, 1, 1, 1, 1.0079953, -102.71524, 1.1, 0.9, 1.1, 0.9
    63,'',  13.8, 2, 1, 1, 1, 1.010605, -102.62692, 1.1, 0.9, 1.1, 0.9
    64,'',   138, 1, 1, 1, 1, 1.0076384, -102.75616, 1.1, 0.9, 1.1, 0.9
    65,'',   345, 1, 1, 1, 1, 1.0305256, -100.03716, 1.1, 0.9, 1.1, 0.9
    66,'',   138, 1, 1, 1, 1, 1.0269307, -101.0802, 1.1, 0.9, 1.1, 0.9
    67,'',   138, 1, 1, 1, 1, 1.0268893, -101.08493, 1.1, 0.9, 1.1, 0.9
    68,'',   138, 1, 1, 1, 1, 1.0061555, -100.07741, 1.1, 0.9, 1.1, 0.9
    69,'',   138, 1, 1, 1, 1, 1.006004, -100.09639, 1.1, 0.9, 1.1, 0.9
    70,'',   138, 1, 1, 1, 1, 1.0111516, -101.14185, 1.1, 0.9, 1.1, 0.9
    71,'',  13.8, 2, 1, 1, 1, 1.011837, -101.12671, 1.1, 0.9, 1.1, 0.9
    72,'',  13.8, 2, 1, 1, 1, 1.0122594, -101.11716, 1.1, 0.9, 1.1, 0.9
    73,'',  13.8, 2, 1, 1, 1, 1.0126301, -101.11145, 1.1, 0.9, 1.1, 0.9
    74,'',   138, 1, 1, 1, 1, 1.0102719, -105.59969, 1.1, 0.9, 1.1, 0.9
    75,'',   138, 1, 1, 1, 1, 1.0102198, -105.60607, 1.1, 0.9, 1.1, 0.9
    76,'',   138, 1, 1, 1, 1, 1.009343, -85.811077, 1.1, 0.9, 1.1, 0.9
    77,'',   138, 1, 1, 1, 1, 1.0092711, -85.819156, 1.1, 0.9, 1.1, 0.9
    78,'',   138, 1, 1, 1, 1, 1.0231277, -95.452859, 1.1, 0.9, 1.1, 0.9
    79,'',   138, 1, 1, 1, 1, 1.023124, -95.453289, 1.1, 0.9, 1.1, 0.9
    80,'',   345, 1, 1, 1, 1, 1.0326986, -101.05102, 1.1, 0.9, 1.1, 0.9
    81,'',   138, 1, 1, 1, 1, 1.0260756, -102.52141, 1.1, 0.9, 1.1, 0.9
    82,'',  13.8, 2, 1, 1, 1, 1.04, -100.09421, 1.1, 0.9, 1.1, 0.9
    83,'',   138, 1, 1, 1, 1, 1.014436, -104.4512, 1.1, 0.9, 1.1, 0.9
    84,'',   138, 1, 1, 1, 1, 1.0138509, -104.52253, 1.1, 0.9, 1.1, 0.9
    85,'',   138, 1, 1, 1, 1, 1.0111041, -104.99762, 1.1, 0.9, 1.1, 0.9
    86,'',   138, 1, 1, 1, 1, 1.0109278, -105.01961, 1.1, 0.9, 1.1, 0.9
    87,'',   138, 1, 1, 1, 1, 1.0051988, -80.536394, 1.1, 0.9, 1.1, 0.9
    88,'',   138, 1, 1, 1, 1, 1.0051444, -80.543091, 1.1, 0.9, 1.1, 0.9
    89,'',   138, 1, 1, 1, 1, 1.0190256, -101.04543, 1.1, 0.9, 1.1, 0.9
    90,'',   138, 1, 1, 1, 1, 1.0189638, -101.05358, 1.1, 0.9, 1.1, 0.9
    91,'',   138, 1, 1, 1, 1, 1.024938, -94.648757, 1.1, 0.9, 1.1, 0.9
    92,'',   138, 1, 1, 1, 1, 1.024293, -94.729952, 1.1, 0.9, 1.1, 0.9
    93,'',   138, 1, 1, 1, 1, 1.0133557, -93.992661, 1.1, 0.9, 1.1, 0.9
    94,'',   138, 1, 1, 1, 1, 1.0133068, -93.998811, 1.1, 0.9, 1.1, 0.9
    95,'',   138, 1, 1, 1, 1, 1.0255858, -94.828549, 1.1, 0.9, 1.1, 0.9
    96,'',   138, 1, 1, 1, 1, 1.0252723, -94.866513, 1.1, 0.9, 1.1, 0.9
    97,'',   138, 1, 1, 1, 1, 0.99901317, -102.42679, 1.1, 0.9, 1.1, 0.9
    98,'',   138, 1, 1, 1, 1, 0.99861253, -102.48072, 1.1, 0.9, 1.1, 0.9
    99,'',   138, 1, 1, 1, 1, 1.027064, -97.198826, 1.1, 0.9, 1.1, 0.9
   100,'',   138, 1, 1, 1, 1, 1.0269543, -97.211935, 1.1, 0.9, 1.1, 0.9
   101,'',   138, 1, 1, 1, 1, 1.0270569, -97.199604, 1.1, 0.9, 1.1, 0.9
   102,'',   138, 1, 1, 1, 1, 1.0105182, -102.85394, 1.1, 0.9, 1.1, 0.9
   103,'',   138, 1, 1, 1, 1, 1.0101393, -102.90229, 1.1, 0.9, 1.1, 0.9
   104,'',   138, 1, 1, 1, 1, 1.008711, -105.68984, 1.1, 0.9, 1.1, 0.9
   105,'',   138, 1, 1, 1, 1, 1.0079119, -105.78659, 1.1, 0.9, 1.1, 0.9
   106,'',   138, 1, 1, 1, 1, 1.0138702, -104.33811, 1.1, 0.9, 1.1, 0.9
   107,'',   138, 1, 1, 1, 1, 1.0137351, -104.3544, 1.1, 0.9, 1.1, 0.9
   108,'',   138, 1, 1, 1, 1, 1.0276446, -97.183774, 1.1, 0.9, 1.1, 0.9
   109,'',   138, 1, 1, 1, 1, 1.0272942, -97.221657, 1.1, 0.9, 1.1, 0.9
   110,'',   138, 1, 1, 1, 1, 1.02545, -81.709956, 1.1, 0.9, 1.1, 0.9
   111,'',   138, 1, 1, 1, 1, 1.0249726, -81.772659, 1.1, 0.9, 1.1, 0.9
   112,'',   138, 1, 1, 1, 1, 1.0133116, -103.02165, 1.1, 0.9, 1.1, 0.9
   113,'',   138, 1, 1, 1, 1, 1.0129103, -103.06693, 1.1, 0.9, 1.1, 0.9
   114,'',   138, 1, 1, 1, 1, 1.014209, -104.90651, 1.1, 0.9, 1.1, 0.9
   115,'',   138, 1, 1, 1, 1, 1.0141671, -104.91195, 1.1, 0.9, 1.1, 0.9
   116,'',   138, 1, 1, 1, 1, 1.0141831, -104.90989, 1.1, 0.9, 1.1, 0.9
   117,'',   138, 1, 1, 1, 1, 1.0160209, -100.85063, 1.1, 0.9, 1.1, 0.9
   118,'',   138, 1, 1, 1, 1, 1.0159345, -100.86143, 1.1, 0.9, 1.1, 0.9
   119,'',   138, 1, 1, 1, 1, 1.0073468, -100.68895, 1.1, 0.9, 1.1, 0.9
   120,'',   138, 1, 1, 1, 1, 1.0070693, -100.72242, 1.1, 0.9, 1.1, 0.9
   121,'',   138, 1, 1, 1, 1, 1.0133289, -103.11884, 1.1, 0.9, 1.1, 0.9
   122,'',   138, 1, 1, 1, 1, 1.012767, -103.19306, 1.1, 0.9, 1.1, 0.9
   123,'',   345, 1, 1, 1, 1, 1.0369206, -94.255668, 1.1, 0.9, 1.1, 0.9
   124,'',   138, 1, 1, 1, 1, 1.0352247, -94.422184, 1.1, 0.9, 1.1, 0.9
   125,'',  13.8, 2, 1, 1, 1, 1.04, -93.696764, 1.1, 0.9, 1.1, 0.9
   126,'',  13.8, 2, 1, 1, 1, 1.04, -93.955158, 1.1, 0.9, 1.1, 0.9
   127,'',  13.8, 2, 1, 1, 1, 1.04, -93.596606, 1.1, 0.9, 1.1, 0.9
   128,'',  13.8, 2, 1, 1, 1, 1.04, -94.038938, 1.1, 0.9, 1.1, 0.9
   129,'',   138, 1, 1, 1, 1, 1.0040094, -101.11705, 1.1, 0.9, 1.1, 0.9
   130,'',   138, 1, 1, 1, 1, 1.0029765, -101.23174, 1.1, 0.9, 1.1, 0.9
   131,'',   138, 1, 1, 1, 1, 1.0314463, -96.65446, 1.1, 0.9, 1.1, 0.9
   132,'',   138, 1, 1, 1, 1, 1.031239, -96.678602, 1.1, 0.9, 1.1, 0.9
   133,'',   138, 1, 1, 1, 1, 1.0260641, -94.69704, 1.1, 0.9, 1.1, 0.9
   134,'',   138, 1, 1, 1, 1, 1.0256967, -94.742192, 1.1, 0.9, 1.1, 0.9
   135,'',   138, 1, 1, 1, 1, 1.016127, -101.27569, 1.1, 0.9, 1.1, 0.9
   136,'',   138, 1, 1, 1, 1, 1.0158563, -101.31084, 1.1, 0.9, 1.1, 0.9
   137,'',   138, 1, 1, 1, 1, 1.0171615, -101.41277, 1.1, 0.9, 1.1, 0.9
   138,'',   138, 1, 1, 1, 1, 1.0164348, -101.50776, 1.1, 0.9, 1.1, 0.9
   139,'',   138, 1, 1, 1, 1, 1.0290561, -97.21039, 1.1, 0.9, 1.1, 0.9
   140,'',   138, 1, 1, 1, 1, 1.0290542, -97.210606, 1.1, 0.9, 1.1, 0.9
   141,'',   138, 1, 1, 1, 1, 1.0013669, -84.228023, 1.1, 0.9, 1.1, 0.9
   142,'',   138, 1, 1, 1, 1, 0.99965684, -84.425348, 1.1, 0.9, 1.1, 0.9
   143,'',   138, 1, 1, 1, 1, 1.0240355, -74.700453, 1.1, 0.9, 1.1, 0.9
   144,'',  13.8, 2, 1, 1, 1, 1.04, -69.376127, 1.1, 0.9, 1.1, 0.9
   145,'',  13.8, 2, 1, 1, 1, 1.04, -69.263934, 1.1, 0.9, 1.1, 0.9
   146,'',   345, 1, 1, 1, 1, 1.0280793, -97.749938, 1.1, 0.9, 1.1, 0.9
   147,'',   138, 1, 1, 1, 1, 1.0170324, -97.233404, 1.1, 0.9, 1.1, 0.9
   148,'',   138, 1, 1, 1, 1, 1.0164066, -97.31437, 1.1, 0.9, 1.1, 0.9
   149,'',   138, 1, 1, 1, 1, 1.0230409, -102.91968, 1.1, 0.9, 1.1, 0.9
   150,'',   138, 1, 1, 1, 1, 1.0230263, -102.92141, 1.1, 0.9, 1.1, 0.9
   151,'',   345, 1, 1, 1, 1, 1.0356341, -95.917191, 1.1, 0.9, 1.1, 0.9
   152,'',   138, 1, 1, 1, 1, 1.034499, -97.223363, 1.1, 0.9, 1.1, 0.9
   153,'',   138, 1, 1, 1, 1, 1.0338641, -97.300107, 1.1, 0.9, 1.1, 0.9
   154,'',   138, 1, 1, 1, 1, 1.026356, -97.682194, 1.1, 0.9, 1.1, 0.9
   155,'',   138, 1, 1, 1, 1, 1.0259056, -97.736094, 1.1, 0.9, 1.1, 0.9
   156,'',   138, 1, 1, 1, 1, 1.0139048, -99.805651, 1.1, 0.9, 1.1, 0.9
   157,'',   138, 1, 1, 1, 1, 1.0128629, -99.935072, 1.1, 0.9, 1.1, 0.9
   158,'',   138, 1, 1, 1, 1, 1.0141433, -102.63527, 1.1, 0.9, 1.1, 0.9
   159,'',   138, 1, 1, 1, 1, 1.0138951, -102.66711, 1.1, 0.9, 1.1, 0.9
   160,'',   138, 1, 1, 1, 1, 1.0188544, -104.11993, 1.1, 0.9, 1.1, 0.9
   161,'',   138, 1, 1, 1, 1, 1.0186245, -104.14924, 1.1, 0.9, 1.1, 0.9
   162,'',   345, 1, 1, 1, 1, 1.0286636, -98.029221, 1.1, 0.9, 1.1, 0.9
   163,'',   138, 1, 1, 1, 1, 1.0253465, -98.761806, 1.1, 0.9, 1.1, 0.9
   164,'',   138, 1, 1, 1, 1, 1.0242377, -98.899368, 1.1, 0.9, 1.1, 0.9
   165,'',   345, 1, 1, 1, 1, 1.0367503, -93.994156, 1.1, 0.9, 1.1, 0.9
   166,'',   138, 1, 1, 1, 1, 1.0336207, -94.812609, 1.1, 0.9, 1.1, 0.9
   167,'',  13.8, 2, 1, 1, 1, 1.04, -93.64275, 1.1, 0.9, 1.1, 0.9
   168,'',  13.8, 2, 1, 1, 1, 1.04, -93.411306, 1.1, 0.9, 1.1, 0.9
   169,'',  13.8, 2, 1, 1, 1, 1.04, -93.154246, 1.1, 0.9, 1.1, 0.9
   170,'',   138, 1, 1, 1, 1, 1.0254024, -94.900556, 1.1, 0.9, 1.1, 0.9
   171,'',   138, 1, 1, 1, 1, 1.0252813, -94.916754, 1.1, 0.9, 1.1, 0.9
   172,'',   138, 1, 1, 1, 1, 1.0161666, -99.918871, 1.1, 0.9, 1.1, 0.9
   173,'',   138, 1, 1, 1, 1, 1.0161387, -99.921946, 1.1, 0.9, 1.1, 0.9
   174,'',   138, 1, 1, 1, 1, 1.0161065, -99.925863, 1.1, 0.9, 1.1, 0.9
   175,'',   345, 1, 1, 1, 1, 1.0327647, -94.07643, 1.1, 0.9, 1.1, 0.9
   176,'',   138, 1, 1, 1, 1, 1.0159718, -90.82385, 1.1, 0.9, 1.1, 0.9
   177,'',   138, 1, 1, 1, 1, 1.0158844, -90.835125, 1.1, 0.9, 1.1, 0.9
   178,'',   138, 1, 1, 1, 1, 1.0159042, -90.83128, 1.1, 0.9, 1.1, 0.9
   179,'',   138, 1, 1, 1, 1, 1.0089736, -103.56647, 1.1, 0.9, 1.1, 0.9
   180,'',   138, 1, 1, 1, 1, 1.0088249, -103.58317, 1.1, 0.9, 1.1, 0.9
   181,'',   138, 1, 1, 1, 1, 1, -102.12658, 1.1, 0.9, 1.1, 0.9
   182,'',   138, 1, 1, 1, 1, 0.99911262, -102.23754, 1.1, 0.9, 1.1, 0.9
   183,'',   138, 1, 1, 1, 1, 1.0167044, -82.407384, 1.1, 0.9, 1.1, 0.9
   184,'',   138, 1, 1, 1, 1, 1.0164405, -82.439045, 1.1, 0.9, 1.1, 0.9
   185,'',   138, 1, 1, 1, 1, 1.018332, -95.773297, 1.1, 0.9, 1.1, 0.9
   186,'',   138, 1, 1, 1, 1, 1.0179259, -95.821558, 1.1, 0.9, 1.1, 0.9
   187,'',   138, 1, 1, 1, 1, 1.0184151, -101.31527, 1.1, 0.9, 1.1, 0.9
   188,'',   138, 1, 1, 1, 1, 1.0183048, -101.32747, 1.1, 0.9, 1.1, 0.9
   189,'',   138, 1, 1, 1, 1, 1.0099976, -105.69407, 1.1, 0.9, 1.1, 0.9
   190,'',   138, 1, 1, 1, 1, 1.0098732, -105.70744, 1.1, 0.9, 1.1, 0.9
   191,'',   138, 1, 1, 1, 1, 1.0150674, -104.58469, 1.1, 0.9, 1.1, 0.9
   192,'',   138, 1, 1, 1, 1, 1.0149038, -104.60429, 1.1, 0.9, 1.1, 0.9
   193,'',   138, 1, 1, 1, 1, 1.0122487, -103.56124, 1.1, 0.9, 1.1, 0.9
   194,'',   138, 1, 1, 1, 1, 1.0119585, -103.59597, 1.1, 0.9, 1.1, 0.9
   195,'',   345, 1, 1, 1, 1, 1.0286994, -97.791648, 1.1, 0.9, 1.1, 0.9
   196,'',   138, 1, 1, 1, 1, 1.0218654, -99.524978, 1.1, 0.9, 1.1, 0.9
   197,'',  13.8, 2, 1, 1, 1, 1.04, -92.922623, 1.1, 0.9, 1.1, 0.9
   198,'',  13.8, 2, 1, 1, 1, 1.04, -95.376416, 1.1, 0.9, 1.1, 0.9
   199,'',   138, 1, 1, 1, 1, 1.0209653, -99.624924, 1.1, 0.9, 1.1, 0.9
   200,'',   138, 1, 1, 1, 1, 1.0192805, -99.895335, 1.1, 0.9, 1.1, 0.9
...
0 / END OF BUS DATA, BEGIN LOAD DATA
2, '1', 1, 1, 1, 28.828, 7.688, 0, 0, 0, 0, 1, 1, 0
4, '1', 1, 1, 1, 89.371, 23.832, 0, 0, 0, 0, 1, 1, 0
6, '1', 1, 1, 1, 2.123, 0.566, 0, 0, 0, 0, 1, 1, 0
11, '1', 1, 1, 1, 1.479, 0.394, 0, 0, 0, 0, 1, 1, 0
13, '1', 1, 1, 1, 23.905, 6.375, 0, 0, 0, 0, 1, 1, 0
20, '1', 1, 1, 1, 2.718, 0.725, 0, 0, 0, 0, 1, 1, 0
22, '1', 1, 1, 1, 100.155, 26.708, 0, 0, 0, 0, 1, 1, 0
25, '1', 1, 1, 1, 1.182, 0.315, 0, 0, 0, 0, 1, 1, 0
26, '1', 1, 1, 1, 11.213, 2.99, 0, 0, 0, 0, 1, 1, 0
28, '1', 1, 1, 1, 32.573, 8.686, 0, 0, 0, 0, 1, 1, 0
30, '1', 1, 1, 1, 67.336, 17.956, 0, 0, 0, 0, 1, 1, 0
32, '1', 1, 1, 1, 5.843, 1.558, 0, 0, 0, 0, 1, 1, 0
34, '1', 1, 1, 1, 14.957, 3.989, 0, 0, 0, 0, 1, 1, 0
36, '1', 1, 1, 1, 25.937, 6.917, 0, 0, 0, 0, 1, 1, 0
38, '1', 1, 1, 1, 0.085, 0.023, 0, 0, 0, 0, 1, 1, 0
41, '1', 1, 1, 1, 30.015, 8.004, 0, 0, 0, 0, 1, 1, 0
43, '1', 1, 1, 1, 2.669, 0.712, 0, 0, 0, 0, 1, 1, 0
45, '1', 1, 1, 1, 1.368, 0.365, 0, 0, 0, 0, 1, 1, 0
47, '1', 1, 1, 1, 22.469, 5.992, 0, 0, 0, 0, 1, 1, 0
51, '1', 1, 1, 1, 0.212, 0.056, 0, 0, 0, 0, 1, 1, 0
52, '1', 1, 1, 1, 13.993, 3.732, 0, 0, 0, 0, 1, 1, 0
54, '1', 1, 1, 1, 23.446, 6.252, 0, 0, 0, 0, 1, 1, 0
56, '1', 1, 1, 1, 1.348, 0.359, 0, 0, 0, 0, 1, 1, 0
59, '1', 1, 1, 1, 90.662, 24.177, 0, 0, 0, 0, 1, 1, 0
61, '1', 1, 1, 1, 0.106, 0.028, 0, 0, 0, 0, 1, 1, 0
64, '1', 1, 1, 1, 23.423, 6.246, 0, 0, 0, 0, 1, 1, 0
67, '1', 1, 1, 1, 2.734, 0.729, 0, 0, 0, 0, 1, 1, 0
69, '1', 1, 1, 1, 8.779, 2.341, 0, 0, 0, 0, 1, 1, 0
75, '1', 1, 1, 1, 3.57, 0.952, 0, 0, 0, 0, 1, 1, 0
77, '1', 1, 1, 1, 4.593, 1.225, 0, 0, 0, 0, 1, 1, 0
79, '1', 1, 1, 1, 0.252, 0.067, 0, 0, 0, 0, 1, 1, 0
84, '1', 1, 1, 1, 36.741, 9.798, 0, 0, 0, 0, 1, 1, 0
86, '1', 1, 1, 1, 10.526, 2.807, 0, 0, 0, 0, 1, 1, 0
88, '1', 1, 1, 1, 3.471, 0.926, 0, 0, 0, 0, 1, 1, 0
90, '1', 1, 1, 1, 3.975, 1.06, 0, 0, 0, 0, 1, 1, 0
92, '1', 1, 1, 1, 42.939, 11.45, 0, 0, 0, 0, 1, 1, 0
94, '1', 1, 1, 1, 3.512, 0.937, 0, 0, 0, 0, 1, 1, 0
96, '1', 1, 1, 1, 22.45, 5.987, 0, 0, 0, 0, 1, 1, 0
98, '1', 1, 1, 1, 24.492, 6.531, 0, 0, 0, 0, 1, 1, 0
100, '1', 1, 1, 1, 6.998, 1.866, 0, 0, 0, 0, 1, 1, 0
101, '1', 1, 1, 1, 0.461, 0.123, 0, 0, 0, 0, 1, 1, 0
103, '1', 1, 1, 1, 23.216, 6.191, 0, 0, 0, 0, 1, 1, 0
105, '1', 1, 1, 1, 48.065, 12.817, 0, 0, 0, 0, 1, 1, 0
107, '1', 1, 1, 1, 9.576, 2.554, 0, 0, 0, 0, 1, 1, 0
109, '1', 1, 1, 1, 24.629, 6.568, 0, 0, 0, 0, 1, 1, 0
111, '1', 1, 1, 1, 32.24, 8.597, 0, 0, 0, 0, 1, 1, 0
113, '1', 1, 1, 1, 27.517, 7.338, 0, 0, 0, 0, 1, 1, 0
115, '1', 1, 1, 1, 3.028, 0.807, 0, 0, 0, 0, 1, 1, 0
116, '1', 1, 1, 1, 1.854, 0.494, 0, 0, 0, 0, 1, 1, 0
118, '1', 1, 1, 1, 5.284, 1.409, 0, 0, 0, 0, 1, 1, 0
120, '1', 1, 1, 1, 20.36, 5.429, 0, 0, 0, 0, 1, 1, 0
122, '1', 1, 1, 1, 35.943, 9.585, 0, 0, 0, 0, 1, 1, 0
130, '1', 1, 1, 1, 66.414, 17.71, 0, 0, 0, 0, 1, 1, 0
132, '1', 1, 1, 1, 13.045, 3.479, 0, 0, 0, 0, 1, 1, 0
134, '1', 1, 1, 1, 28.159, 7.509, 0, 0, 0, 0, 1, 1, 0
136, '1', 1, 1, 1, 18.022, 4.806, 0, 0, 0, 0, 1, 1, 0
138, '1', 1, 1, 1, 47.091, 12.557, 0, 0, 0, 0, 1, 1, 0
140, '1', 1, 1, 1, 0.132, 0.035, 0, 0, 0, 0, 1, 1, 0
142, '1', 1, 1, 1, 106.615, 28.431, 0, 0, 0, 0, 1, 1, 0
148, '1', 1, 1, 1, 38.675, 10.313, 0, 0, 0, 0, 1, 1, 0
150, '1', 1, 1, 1, 0.899, 0.24, 0, 0, 0, 0, 1, 1, 0
153, '1', 1, 1, 1, 48.215, 12.857, 0, 0, 0, 0, 1, 1, 0
155, '1', 1, 1, 1, 34.597, 9.226, 0, 0, 0, 0, 1, 1, 0
157, '1', 1, 1, 1, 67.836, 18.09, 0, 0, 0, 0, 1, 1, 0
159, '1', 1, 1, 1, 15.391, 4.104, 0, 0, 0, 0, 1, 1, 0
161, '1', 1, 1, 1, 15.528, 4.141, 0, 0, 0, 0, 1, 1, 0
164, '1', 1, 1, 1, 66.109, 17.629, 0, 0, 0, 0, 1, 1, 0
171, '1', 1, 1, 1, 8.171, 2.179, 0, 0, 0, 0, 1, 1, 0
173, '1', 1, 1, 1, 1.876, 0.5, 0, 0, 0, 0, 1, 1, 0
174, '1', 1, 1, 1, 4.371, 1.166, 0, 0, 0, 0, 1, 1, 0
177, '1', 1, 1, 1, 5.802, 1.547, 0, 0, 0, 0, 1, 1, 0
178, '1', 1, 1, 1, 4.502, 1.201, 0, 0, 0, 0, 1, 1, 0
180, '1', 1, 1, 1, 9.521, 2.539, 0, 0, 0, 0, 1, 1, 0
182, '1', 1, 1, 1, 54.551, 14.547, 0, 0, 0, 0, 1, 1, 0
184, '1', 1, 1, 1, 19.941, 5.318, 0, 0, 0, 0, 1, 1, 0
186, '1', 1, 1, 1, 29.944, 7.985, 0, 0, 0, 0, 1, 1, 0
188, '1', 1, 1, 1, 7.442, 1.985, 0, 0, 0, 0, 1, 1, 0
190, '1', 1, 1, 1, 8.418, 2.245, 0, 0, 0, 0, 1, 1, 0
192, '1', 1, 1, 1, 9.836, 2.623, 0, 0, 0, 0, 1, 1, 0
194, '1', 1, 1, 1, 17.169, 4.578, 0, 0, 0, 0, 1, 1, 0
199, '1', 1, 1, 1, 58.191, 15.517, 0, 0, 0, 0, 1, 1, 0
201, '1', 1, 1, 1, 5.987, 1.597, 0, 0, 0, 0, 1, 1, 0
203, '1', 1, 1, 1, 2.805, 0.748, 0, 0, 0, 0, 1, 1, 0
204, '1', 1, 1, 1, 27.323, 7.286, 0, 0, 0, 0, 1, 1, 0
206, '1', 1, 1, 1, 1.8, 0.48, 0, 0, 0, 0, 1, 1, 0
207, '1', 1, 1, 1, 13.505, 3.601, 0, 0, 0, 0, 1, 1, 0
209, '1', 1, 1, 1, 52.656, 14.042, 0, 0, 0, 0, 1, 1, 0
211, '1', 1, 1, 1, 17.742, 4.731, 0, 0, 0, 0, 1, 1, 0
213, '1', 1, 1, 1, 58.325, 15.553, 0, 0, 0, 0, 1, 1, 0
215, '1', 1, 1, 1, 50.544, 13.478, 0, 0, 0, 0, 1, 1, 0
217, '1', 1, 1, 1, 35.446, 9.452, 0, 0, 0, 0, 1, 1, 0
219, '1', 1, 1, 1, 0.199, 0.053, 0, 0, 0, 0, 1, 1, 0
227, '1', 1, 1, 1, 3.582, 0.955, 0, 0, 0, 0, 1, 1, 0
229, '1', 1, 1, 1, 35.716, 9.524, 0, 0, 0, 0, 1, 1, 0
234, '1', 1, 1, 1, 40.389, 10.77, 0, 0, 0, 0, 1, 1, 0
237, '1', 1, 1, 1, 1.623, 0.433, 0, 0, 0, 0, 1, 1, 0
239, '1', 1, 1, 1, 20.254, 5.401, 0, 0, 0, 0, 1, 1, 0
241, '1', 1, 1, 1, 11.811, 3.15, 0, 0, 0, 0, 1, 1, 0
243, '1', 1, 1, 1, 50.156, 13.375, 0, 0, 0, 0, 1, 1, 0
245, '1', 1, 1, 1, 7.081, 1.888, 0, 0, 0, 0, 1, 1, 0
252, '1', 1, 1, 1, 76.347, 20.359, 0, 0, 0, 0, 1, 1, 0
259, '1', 1, 1, 1, 5.249, 1.4, 0, 0, 0, 0, 1, 1, 0
261, '1', 1, 1, 1, 12.337, 3.29, 0, 0, 0, 0, 1, 1, 0
266, '1', 1, 1, 1, 41.613, 11.097, 0, 0, 0, 0, 1, 1, 0
268, '1', 1, 1, 1, 70.091, 18.691, 0, 0, 0, 0, 1, 1, 0
270, '1', 1, 1, 1, 4.069, 1.085, 0, 0, 0, 0, 1, 1, 0
273, '1', 1, 1, 1, 5.679, 1.514, 0, 0, 0, 0, 1, 1, 0
277, '1', 1, 1, 1, 0.273, 0.073, 0, 0, 0, 0, 1, 1, 0
278, '1', 1, 1, 1, 3.886, 1.036, 0, 0, 0, 0, 1, 1, 0
280, '1', 1, 1, 1, 10.9, 2.907, 0, 0, 0, 0, 1, 1, 0
282, '1', 1, 1, 1, 77.456, 20.655, 0, 0, 0, 0, 1, 1, 0
284, '1', 1, 1, 1, 19.534, 5.209, 0, 0, 0, 0, 1, 1, 0
286, '1', 1, 1, 1, 5.459, 1.456, 0, 0, 0, 0, 1, 1, 0
288, '1', 1, 1, 1, 39.138, 10.437, 0, 0, 0, 0, 1, 1, 0
290, '1', 1, 1, 1, 2.437, 0.65, 0, 0, 0, 0, 1, 1, 0
292, '1', 1, 1, 1, 5.13, 1.368, 0, 0, 0, 0, 1, 1, 0
294, '1', 1, 1, 1, 15.32, 4.085, 0, 0, 0, 0, 1, 1, 0
296, '1', 1, 1, 1, 4.031, 1.075, 0, 0, 0, 0, 1, 1, 0
299, '1', 1, 1, 1, 8.716, 2.324, 0, 0, 0, 0, 1, 1, 0
303, '1', 1, 1, 1, 57.329, 15.288, 0, 0, 0, 0, 1, 1, 0
307, '1', 1, 1, 1, 48.918, 13.045, 0, 0, 0, 0, 1, 1, 0
309, '1', 1, 1, 1, 5.403, 1.441, 0, 0, 0, 0, 1, 1, 0
311, '1', 1, 1, 1, 28.942, 7.718, 0, 0, 0, 0, 1, 1, 0
313, '1', 1, 1, 1, 7.442, 1.984, 0, 0, 0, 0, 1, 1, 0
315, '1', 1, 1, 1, 0.22, 0.059, 0, 0, 0, 0, 1, 1, 0
317, '1', 1, 1, 1, 2.48, 0.661, 0, 0, 0, 0, 1, 1, 0
321, '1', 1, 1, 1, 101.317, 27.018, 0, 0, 0, 0, 1, 1, 0
323, '1', 1, 1, 1, 29.121, 7.766, 0, 0, 0, 0, 1, 1, 0
325, '1', 1, 1, 1, 66.555, 17.748, 0, 0, 0, 0, 1, 1, 0
327, '1', 1, 1, 1, 81.545, 21.745, 0, 0, 0, 0, 1, 1, 0
329, '1', 1, 1, 1, 17.181, 4.582, 0, 0, 0, 0, 1, 1, 0
331, '1', 1, 1, 1, 29.593, 7.891, 0, 0, 0, 0, 1, 1, 0
334, '1', 1, 1, 1, 0.259, 0.069, 0, 0, 0, 0, 1, 1, 0
335, '1', 1, 1, 1, 0.432, 0.115, 0, 0, 0, 0, 1, 1, 0
337, '1', 1, 1, 1, 3.749, 1, 0, 0, 0, 0, 1, 1, 0
339, '1', 1, 1, 1, 49.629, 13.234, 0, 0, 0, 0, 1, 1, 0
341, '1', 1, 1, 1, 15.582, 4.155, 0, 0, 0, 0, 1, 1, 0
343, '1', 1, 1, 1, 1.502, 0.401, 0, 0, 0, 0, 1, 1, 0
344, '1', 1, 1, 1, 1.454, 0.388, 0, 0, 0, 0, 1, 1, 0
346, '1', 1, 1, 1, 32.049, 8.547, 0, 0, 0, 0, 1, 1, 0
348, '1', 1, 1, 1, 55.578, 14.821, 0, 0, 0, 0, 1, 1, 0
355, '1', 1, 1, 1, 13.447, 3.586, 0, 0, 0, 0, 1, 1, 0
357, '1', 1, 1, 1, 35.853, 9.561, 0, 0, 0, 0, 1, 1, 0
359, '1', 1, 1, 1, 8.727, 2.327, 0, 0, 0, 0, 1, 1, 0
364, '1', 1, 1, 1, 15.754, 4.201, 0, 0, 0, 0, 1, 1, 0
366, '1', 1, 1, 1, 38.049, 10.146, 0, 0, 0, 0, 1, 1, 0
368, '1', 1, 1, 1, 7.563, 2.017, 0, 0, 0, 0, 1, 1, 0
370, '1', 1, 1, 1, 23.51, 6.269, 0, 0, 0, 0, 1, 1, 0
373, '1', 1, 1, 1, 19.422, 5.179, 0, 0, 0, 0, 1, 1, 0
375, '1', 1, 1, 1, 16.68, 4.448, 0, 0, 0, 0, 1, 1, 0
377, '1', 1, 1, 1, 46.784, 12.476, 0, 0, 0, 0, 1, 1, 0
379, '1', 1, 1, 1, 8.598, 2.293, 0, 0, 0, 0, 1, 1, 0
381, '1', 1, 1, 1, 5.244, 1.398, 0, 0, 0, 0, 1, 1, 0
383, '1', 1, 1, 1, 15.5, 4.133, 0, 0, 0, 0, 1, 1, 0
385, '1', 1, 1, 1, 23.558, 6.282, 0, 0, 0, 0, 1, 1, 0
397, '1', 1, 1, 1, 26.382, 7.035, 0, 0, 0, 0, 1, 1, 0
398, '1', 1, 1, 1, 11.071, 2.952, 0, 0, 0, 0, 1, 1, 0
400, '1', 1, 1, 1, 13.776, 3.674, 0, 0, 0, 0, 1, 1, 0
402, '1', 1, 1, 1, 58.38, 15.568, 0, 0, 0, 0, 1, 1, 0
404, '1', 1, 1, 1, 11.829, 3.154, 0, 0, 0, 0, 1, 1, 0
406, '1', 1, 1, 1, 3.469, 0.925, 0, 0, 0, 0, 1, 1, 0
416, '1', 1, 1, 1, 4.084, 1.089, 0, 0, 0, 0, 1, 1, 0
418, '1', 1, 1, 1, 40.923, 10.913, 0, 0, 0, 0, 1, 1, 0
420, '1', 1, 1, 1, 3.127, 0.834, 0, 0, 0, 0, 1, 1, 0
422, '1', 1, 1, 1, 33.124, 8.833, 0, 0, 0, 0, 1, 1, 0
424, '1', 1, 1, 1, 103.808, 27.682, 0, 0, 0, 0, 1, 1, 0
427, '1', 1, 1, 1, 8.636, 2.303, 0, 0, 0, 0, 1, 1, 0
446, '1', 1, 1, 1, 57.049, 15.213, 0, 0, 0, 0, 1, 1, 0
448, '1', 1, 1, 1, 29.791, 7.944, 0, 0, 0, 0, 1, 1, 0
450, '1', 1, 1, 1, 0.581, 0.155, 0, 0, 0, 0, 1, 1, 0
451, '1', 1, 1, 1, 1.144, 0.305, 0, 0, 0, 0, 1, 1, 0
452, '1', 1, 1, 1, 7.376, 1.967, 0, 0, 0, 0, 1, 1, 0
459, '1', 1, 1, 1, 49.209, 13.122, 0, 0, 0, 0, 1, 1, 0
460, '1', 1, 1, 1, 13.635, 3.636, 0, 0, 0, 0, 1, 1, 0
461, '1', 1, 1, 1, 59.003, 15.734, 0, 0, 0, 0, 1, 1, 0
465, '1', 1, 1, 1, 6.481, 1.728, 0, 0, 0, 0, 1, 1, 0
466, '1', 1, 1, 1, 22.431, 5.982, 0, 0, 0, 0, 1, 1, 0
467, '1', 1, 1, 1, 0.533, 0.142, 0, 0, 0, 0, 1, 1, 0
468, '1', 1, 1, 1, 2.484, 0.662, 0, 0, 0, 0, 1, 1, 0
469, '1', 1, 1, 1, 82.683, 22.049, 0, 0, 0, 0, 1, 1, 0
470, '1', 1, 1, 1, 28.102, 7.494, 0, 0, 0, 0, 1, 1, 0
472, '1', 1, 1, 1, 25.731, 6.862, 0, 0, 0, 0, 1, 1, 0
473, '1', 1, 1, 1, 0.66, 0.176, 0, 0, 0, 0, 1, 1, 0
474, '1', 1, 1, 1, 107.571, 28.685, 0, 0, 0, 0, 1, 1, 0
475, '1', 1, 1, 1, 0.109, 0.029, 0, 0, 0, 0, 1, 1, 0
476, '1', 1, 1, 1, 40.316, 10.751, 0, 0, 0, 0, 1, 1, 0
477, '1', 1, 1, 1, 16.215, 4.324, 0, 0, 0, 0, 1, 1, 0
478, '1', 1, 1, 1, 6.051, 1.613, 0, 0, 0, 0, 1, 1, 0
485, '1', 1, 1, 1, 18.778, 5.007, 0, 0, 0, 0, 1, 1, 0
486, '1', 1, 1, 1, 46.162, 12.31, 0, 0, 0, 0, 1, 1, 0
487, '1', 1, 1, 1, 7.704, 2.054, 0, 0, 0, 0, 1, 1, 0
488, '1', 1, 1, 1, 62.975, 16.793, 0, 0, 0, 0, 1, 1, 0
489, '1', 1, 1, 1, 2.203, 0.587, 0, 0, 0, 0, 1, 1, 0
490, '1', 1, 1, 1, 19.684, 5.249, 0, 0, 0, 0, 1, 1, 0
491, '1', 1, 1, 1, 80.508, 21.469, 0, 0, 0, 0, 1, 1, 0
492, '1', 1, 1, 1, 39.345, 10.492, 0, 0, 0, 0, 1, 1, 0
493, '1', 1, 1, 1, 2.674, 0.713, 0, 0, 0, 0, 1, 1, 0
495, '1', 1, 1, 1, 38.909, 10.376, 0, 0, 0, 0, 1, 1, 0
499, '1', 1, 1, 1, 82.392, 21.971, 0, 0, 0, 0, 1, 1, 0
500, '1', 1, 1, 1, 14.019, 3.738, 0, 0, 0, 0, 1, 1, 0
0 / END OF LOAD DATA, BEGIN FIXED SHUNT DATA
0 / END OF FIXED SHUNT DATA, BEGIN GENERATOR DATA
9, '1', 579.96281, -94.16, 359.659, -94.16, 1.04, 0, 0, 0, 1.0, 0, 0, 1, 1, 1, 771.8, 231.54, 1, 1, 0, 1, 0, 1, 0, 1, 0, 1
16, '1', 444.45, -36.445, 163.558, -36.445, 1.04, 0, 0, 0, 1.0, 0, 0, 1, 1, 1, 444.45, 133.335, 1, 1, 0, 1, 0, 1, 0, 1, 0, 1
17, '1', 888.9, -72.89, 327.115, -72.89, 1.04, 0, 0, 0, 1.0, 0, 0, 1, 1, 1, 888.9, 266.67, 1, 1, 0, 1, 0, 1, 0, 1, 0, 1
18, '1', 157.6, -12.923, 57.997, -12.923, 1.04, 0, 0, 0, 1.0, 0, 0, 1, 1, 1, 157.6, 47.28, 1, 1, 0, 1, 0, 1, 0, 1, 0, 1
49, '1', 1.3, -0.159, 0.606, -0.159, 1.0052745, 0, 0, 0, 1.0, 0, 0, 1, 1, 1, 1.3, 0.39, 1, 1, 0, 1, 0, 1, 0, 1, 0, 1
50, '1', 2.6, -0.317, 1.212, -0.317, 1.0055772, 0, 0, 0, 1.0, 0, 0, 1, 1, 1, 2.6, 0.78, 1, 1, 0, 1, 0, 1, 0, 1, 0, 1
63, '1', 0.99139053, -0.355, 1.629, -0.355, 1.010605, 0, 0, 0, 1.0, 0, 0, 1, 1, 1, 3.2, 0.96, 1, 1, 0, 1, 0, 1, 0, 1, 0, 1
71, '1', 0.64, -0.196, 1.536, -0.196, 1.0119106, 0, 0, 0, 1.0, 0, 0, 1, 1, 1, 0.64, 0, 1, 1, 0, 1, 0, 1, 0, 1, 0, 1
72, '1', 0.32, -0.098, 0.768, -0.098, 1.012333, 0, 0, 0, 1.0, 0, 0, 1, 1, 1, 0.32, 0, 1, 1, 0, 1, 0, 1, 0, 1, 0, 1
73, '1', 0.224, -0.069, 0.538, -0.069, 1.0127037, 0, 0, 0, 1.0, 0, 0, 1, 1, 1, 0.224, 0, 1, 1, 0, 1, 0, 1, 0, 1, 0, 1
82, '1', 57.944, -17.733, 138.97, -17.733, 1.04, 0, 0, 0, 1.0, 0, 0, 1, 1, 1, 57.944, 0, 1, 1, 0, 1, 0, 1, 0, 1, 0, 1
125, '1', 25.938, -7.938, 62.208, -7.938, 1.04, 0, 0, 0, 1.0, 0, 0, 1, 1, 1, 25.938, 0, 1, 1, 0, 1, 0, 1, 0, 1, 0, 1
126, '1', 25.938, -7.938, 62.208, -7.938, 1.04, 0, 0, 0, 1.0, 0, 0, 1, 1, 1, 25.938, 0, 1, 1, 0, 1, 0, 1, 0, 1, 0, 1
127, '1', 25.938, -7.938, 62.208, -7.938, 1.04, 0, 0, 0, 1.0, 0, 0, 1, 1, 1, 25.938, 0, 1, 1, 0, 1, 0, 1, 0, 1, 0, 1
128, '1', 25.938, -7.938, 62.208, -7.938, 1.04, 0, 0, 0, 1.0, 0, 0, 1, 1, 1, 25.938, 0, 1, 1, 0, 1, 0, 1, 0, 1, 0, 1
144, '1', 602.55, -49.409, 221.738, -49.409, 1.04, 0, 0, 0, 1.0, 0, 0, 1, 1, 1, 602.55, 180.765, 1, 1, 0, 1, 0, 1, 0, 1, 0, 1
145, '1', 602.55, -49.409, 221.738, -49.409, 1.04, 0, 0, 0, 1.0, 0, 0, 1, 1, 1, 602.55, 180.765, 1, 1, 0, 1, 0, 1, 0, 1, 0, 1
167, '1', 30.982, -9.482, 74.304, -9.482, 1.04, 0, 0, 0, 1.0, 0, 0, 1, 1, 1, 30.982, 0, 1, 1, 0, 1, 0, 1, 0, 1, 0, 1
168, '1', 30.982, -9.482, 74.304, -9.482, 1.04, 0, 0, 0, 1.0, 0, 0, 1, 1, 1, 30.982, 0, 1, 1, 0, 1, 0, 1, 0, 1, 0, 1
169, '1', 61.963, -18.963, 148.608, -18.963, 1.04, 0, 0, 0, 1.0, 0, 0, 1, 1, 1, 61.963, 0, 1, 1, 0, 1, 0, 1, 0, 1, 0, 1
197, '1', 293.6, -35.819, 136.818, -35.819, 1.04, 0, 0, 0, 1.0, 0, 0, 1, 1, 1, 293.6, 88.08, 1, 1, 0, 1, 0, 1, 0, 1, 0, 1
198, '1', 207.3, -25.291, 96.602, -25.291, 1.04, 0, 0, 0, 1.0, 0, 0, 1, 1, 1, 207.3, 62.19, 1, 1, 0, 1, 0, 1, 0, 1, 0, 1
222, '1', 0.833, -0.255, 1.997, -0.255, 1.0385935, 0, 0, 0, 1.0, 0, 0, 1, 1, 1, 0.833, 0, 1, 1, 0, 1, 0, 1, 0, 1, 0, 1
223, '1', 2.882, -0.882, 6.912, -0.882, 1.04, 0, 0, 0, 1.0, 0, 0, 1, 1, 1, 2.882, 0, 1, 1, 0, 1, 0, 1, 0, 1, 0, 1
224, '1', 81.849, -25.049, 196.301, -25.049, 1.04, 0, 0, 0, 1.0, 0, 0, 1, 1, 1, 81.849, 0, 1, 1, 0, 1, 0, 1, 0, 1, 0, 1
225, '1', 82.425, -25.225, 197.683, -25.225, 1.04, 0, 0, 0, 1.0, 0, 0, 1, 1, 1, 82.425, 0, 1, 1, 0, 1, 0, 1, 0, 1, 0, 1
231, '1', 2.9, -0.354, 1.351, -0.354, 1.0146231, 0, 0, 0, 1.0, 0, 0, 1, 1, 1, 2.9, 0.87, 1, 1, 0, 1, 0, 1, 0, 1, 0, 1
248, '1', 0, -0.836, 67.799, -14.785, 1.0383498, 0, 0, 0, 1.0, 0, 0, 1, 0, 1, 133.2, 39.96, 1, 1, 0, 1, 0, 1, 0, 1, 0, 1
249, '1', 0, -0.943, 67.799, -14.785, 1.0383498, 0, 0, 0, 1.0, 0, 0, 1, 0, 1, 133.2, 39.96, 1, 1, 0, 1, 0, 1, 0, 1, 0, 1
250, '1', 0, -4.128, 271.195, -59.141, 1.0383498, 0, 0, 0, 1.0, 0, 0, 1, 0, 1, 532.8, 159.84, 1, 1, 0, 1, 0, 1, 0, 1, 0, 1
254, '1', 4.1, -0.5, 1.911, -0.5, 1.0133217, 0, 0, 0, 1.0, 0, 0, 1, 1, 1, 4.1, 1.23, 1, 1, 0, 1, 0, 1, 0, 1, 0, 1
255, '1', 3.3, -0.403, 1.538, -0.403, 1.0123215, 0, 0, 0, 1.0, 0, 0, 1, 1, 1, 3.3, 0.99, 1, 1, 0, 1, 0, 1, 0, 1, 0, 1
256, '1', 2.9, -0.354, 1.351, -0.354, 1.0133187, 0, 0, 0, 1.0, 0, 0, 1, 1, 1, 2.9, 0.87, 1, 1, 0, 1, 0, 1, 0, 1, 0, 1
257, '1', 5.4, -0.659, 2.516, -0.659, 1.0127667, 0, 0, 0, 1.0, 0, 0, 1, 1, 1, 5.4, 1.62, 1, 1, 0, 1, 0, 1, 0, 1, 0, 1
258, '1', 1.1, -0.134, 0.513, -0.134, 1.0120403, 0, 0, 0, 1.0, 0, 0, 1, 1, 1, 1.1, 0.33, 1, 1, 0, 1, 0, 1, 0, 1, 0, 1
264, '1', 12.144534, -4.351, 19.953, -4.351, 1.0390212, 0, 0, 0, 1.0, 0, 0, 1, 1, 1, 39.2, 11.76, 1, 1, 0, 1, 0, 1, 0, 1, 0, 1
265, '1', 3.2839811, -1.177, 5.395, -1.177, 1.0311706, 0, 0, 0, 1.0, 0, 0, 1, 1, 1, 10.6, 3.18, 1, 1, 0, 1, 0, 1, 0, 1, 0, 1
275, '1', 31.352725, -11.233, 51.511, -11.233, 1.04, 0, 0, 0, 1.0, 0, 0, 1, 1, 1, 101.2, 30.36, 1, 1, 0, 1, 0, 1, 0, 1, 0, 1
301, '1', 2.9, -0.354, 1.351, -0.354, 1.0039294, 0, 0, 0, 1.0, 0, 0, 1, 1, 1, 2.9, 0.87, 1, 1, 0, 1, 0, 1, 0, 1, 0, 1
302, '1', 2.9, -0.354, 1.351, -0.354, 1.0039256, 0, 0, 0, 1.0, 0, 0, 1, 1, 1, 2.9, 0.87, 1, 1, 0, 1, 0, 1, 0, 1, 0, 1
305, '1', 0.16, -0.049, 0.384, -0.049, 1.0073016, 0, 0, 0, 1.0, 0, 0, 1, 1, 1, 0.16, 0, 1, 1, 0, 1, 0, 1, 0, 1, 0, 1
306, '1', 0.384, -0.118, 0.922, -0.118, 1.0075326, 0, 0, 0, 1.0, 0, 0, 1, 1, 1, 0.384, 0, 1, 1, 0, 1, 0, 1, 0, 1, 0, 1
319, '1', 6.773, -2.073, 16.243, -2.073, 1.0384956, 0, 0, 0, 1.0, 0, 0, 1, 1, 1, 6.773, 0, 1, 1, 0, 1, 0, 1, 0, 1, 0, 1
350, '1', 2.402, -0.735, 5.76, -0.735, 1.030934, 0, 0, 0, 1.0, 0, 0, 1, 1, 1, 2.402, 0, 1, 1, 0, 1, 0, 1, 0, 1, 0, 1
351, '1', 0.993, -0.304, 2.381, -0.304, 1.0287433, 0, 0, 0, 1.0, 0, 0, 1, 1, 1, 0.993, 0, 1, 1, 0, 1, 0, 1, 0, 1, 0, 1
352, '1', 2.306, -0.706, 5.53, -0.706, 1.0308074, 0, 0, 0, 1.0, 0, 0, 1, 1, 1, 2.306, 0, 1, 1, 0, 1, 0, 1, 0, 1, 0, 1
353, '1', 11.848, -3.626, 28.416, -3.626, 1.04, 0, 0, 0, 1.0, 0, 0, 1, 1, 1, 11.848, 0, 1, 1, 0, 1, 0, 1, 0, 1, 0, 1
361, '1', 0.49569526, -0.178, 0.814, -0.178, 1.0249676, 0, 0, 0, 1.0, 0, 0, 1, 1, 1, 1.6, 0.48, 1, 1, 0, 1, 0, 1, 0, 1, 0, 1
362, '1', 3.4079049, -1.221, 5.599, -1.221, 1.0288093, 0, 0, 0, 1.0, 0, 0, 1, 1, 1, 11, 3.3, 1, 1, 0, 1, 0, 1, 0, 1, 0, 1
363, '1', 0.99139053, -0.355, 1.629, -0.355, 1.0239936, 0, 0, 0, 1.0, 0, 0, 1, 1, 1, 3.2, 0.96, 1, 1, 0, 1, 0, 1, 0, 1, 0, 1
388, '1', 3.0980954, -1.11, 5.09, -1.11, 1.0376686, 0, 0, 0, 1.0, 0, 0, 1, 1, 1, 10, 3, 1, 1, 0, 1, 0, 1, 0, 1, 0, 1
389, '1', 0, 6.602, 88.227, -19.24, 1.0355606, 0, 0, 0, 1.0, 0, 0, 1, 0, 1, 173.333, 52, 1, 1, 0, 1, 0, 1, 0, 1, 0, 1
390, '1', 0, 8.586, 88.227, -19.24, 1.0355606, 0, 0, 0, 1.0, 0, 0, 1, 0, 1, 173.333, 52, 1, 1, 0, 1, 0, 1, 0, 1, 0, 1
391, '1', 0, 8.888, 88.227, -19.24, 1.0355606, 0, 0, 0, 1.0, 0, 0, 1, 0, 1, 173.333, 52, 1, 1, 0, 1, 0, 1, 0, 1, 0, 1
392, '1', 36.06183, -12.92, 59.248, -12.92, 1.04, 0, 0, 0, 1.0, 0, 0, 1, 1, 1, 116.4, 34.92, 1, 1, 0, 1, 0, 1, 0, 1, 0, 1
393, '1', 36.06183, -12.92, 59.248, -12.92, 1.04, 0, 0, 0, 1.0, 0, 0, 1, 1, 1, 116.4, 34.92, 1, 1, 0, 1, 0, 1, 0, 1, 0, 1
394, '1', 36.06183, -12.92, 59.248, -12.92, 1.04, 0, 0, 0, 1.0, 0, 0, 1, 1, 1, 116.4, 34.92, 1, 1, 0, 1, 0, 1, 0, 1, 0, 1
395, '1', 36.06183, -12.92, 59.248, -12.92, 1.04, 0, 0, 0, 1.0, 0, 0, 1, 1, 1, 116.4, 34.92, 1, 1, 0, 1, 0, 1, 0, 1, 0, 1
396, '1', 36.06183, -12.92, 59.248, -12.92, 1.04, 0, 0, 0, 1.0, 0, 0, 1, 1, 1, 116.4, 34.92, 1, 1, 0, 1, 0, 1, 0, 1, 0, 1
409, '1', 30.980954, -11.1, 50.9, -11.1, 1.04, 0, 0, 0, 1.0, 0, 0, 1, 1, 1, 100, 30, 1, 1, 0, 1, 0, 1, 0, 1, 0, 1
410, '1', 0, 3.883, 69.708, -15.201, 1.0321557, 0, 0, 0, 1.0, 0, 0, 1, 0, 1, 136.95, 41.085, 1, 1, 0, 1, 0, 1, 0, 1, 0, 1
411, '1', 0, 5.902, 69.708, -15.201, 1.0321557, 0, 0, 0, 1.0, 0, 0, 1, 0, 1, 136.95, 41.085, 1, 1, 0, 1, 0, 1, 0, 1, 0, 1
412, '1', 0, 5.209, 69.708, -15.201, 1.0321557, 0, 0, 0, 1.0, 0, 0, 1, 0, 1, 136.95, 41.085, 1, 1, 0, 1, 0, 1, 0, 1, 0, 1
413, '1', 0, 3.399, 69.708, -15.201, 1.0321557, 0, 0, 0, 1.0, 0, 0, 1, 0, 1, 136.95, 41.085, 1, 1, 0, 1, 0, 1, 0, 1, 0, 1
414, '1', 34.41984, -12.332, 56.55, -12.332, 1.04, 0, 0, 0, 1.0, 0, 0, 1, 1, 1, 111.1, 33.33, 1, 1, 0, 1, 0, 1, 0, 1, 0, 1
430, '1', 0.16, -0.049, 0.384, -0.049, 1.0381078, 0, 0, 0, 1.0, 0, 0, 1, 1, 1, 0.16, 0, 1, 1, 0, 1, 0, 1, 0, 1, 0, 1
431, '1', 0.528, -0.162, 1.267, -0.162, 1.0383177, 0, 0, 0, 1.0, 0, 0, 1, 1, 1, 0.528, 0, 1, 1, 0, 1, 0, 1, 0, 1, 0, 1
432, '1', 0.192, -0.059, 0.461, -0.059, 1.0380124, 0, 0, 0, 1.0, 0, 0, 1, 1, 1, 0.192, 0, 1, 1, 0, 1, 0, 1, 0, 1, 0, 1
433, '1', 1.073, -0.328, 2.573, -0.328, 1.04, 0, 0, 0, 1.0, 0, 0, 1, 1, 1, 1.073, 0, 1, 1, 0, 1, 0, 1, 0, 1, 0, 1
434, '1', 0.688, -0.211, 1.651, -0.211, 1.038233, 0, 0, 0, 1.0, 0, 0, 1, 1, 1, 0.688, 0, 1, 1, 0, 1, 0, 1, 0, 1, 0, 1
435, '1', 31.542, -9.653, 75.648, -9.653, 1.04, 0, 0, 0, 1.0, 0, 0, 1, 1, 1, 31.542, 0, 1, 1, 0, 1, 0, 1, 0, 1, 0, 1
436, '1', 31.542, -9.653, 75.648, -9.653, 1.04, 0, 0, 0, 1.0, 0, 0, 1, 1, 1, 31.542, 0, 1, 1, 0, 1, 0, 1, 0, 1, 0, 1
437, '1', 31.542, -9.653, 75.648, -9.653, 1.04, 0, 0, 0, 1.0, 0, 0, 1, 1, 1, 31.542, 0, 1, 1, 0, 1, 0, 1, 0, 1, 0, 1
438, '1', 31.542, -9.653, 75.648, -9.653, 1.04, 0, 0, 0, 1.0, 0, 0, 1, 1, 1, 31.542, 0, 1, 1, 0, 1, 0, 1, 0, 1, 0, 1
439, '1', 31.542, -9.653, 75.648, -9.653, 1.04, 0, 0, 0, 1.0, 0, 0, 1, 1, 1, 31.542, 0, 1, 1, 0, 1, 0, 1, 0, 1, 0, 1
442, '1', 33.45943, -11.988, 54.972, -11.988, 1.04, 0, 0, 0, 1.0, 0, 0, 1, 1, 1, 108, 32.4, 1, 1, 0, 1, 0, 1, 0, 1, 0, 1
443, '1', 0, 29.929, 89.075, -19.425, 1.0278167, 0, 0, 0, 1.0, 0, 0, 1, 0, 1, 175, 52.5, 1, 1, 0, 1, 0, 1, 0, 1, 0, 1
444, '1', 1.0223715, -0.366, 1.68, -0.366, 1.0293086, 0, 0, 0, 1.0, 0, 0, 1, 1, 1, 3.3, 0.99, 1, 1, 0, 1, 0, 1, 0, 1, 0, 1
455, '1', 0, 30.906, 113.422, -24.735, 1.0255436, 0, 0, 0, 1.0, 0, 0, 1, 0, 1, 222.833, 66.85, 1, 1, 0, 1, 0, 1, 0, 1, 0, 1
456, '1', 0, 33.314, 226.844, -49.469, 1.0255436, 0, 0, 0, 1.0, 0, 0, 1, 0, 1, 445.667, 133.7, 1, 1, 0, 1, 0, 1, 0, 1, 0, 1
458, '1', 109.6, 0, 0, 0, 1.0207133, 0, 0, 0, 1.0, 0, 0, 1, 1, 1, 109.6, 32.88, 1, 1, 0, 1, 0, 1, 0, 1, 0, 1
463, '1', 7.2, -0.878, 3.355, -0.878, 1.0270746, 0, 0, 0, 1.0, 0, 0, 1, 1, 1, 7.2, 2.16, 1, 1, 0, 1, 0, 1, 0, 1, 0, 1
480, '1', 8.966, -2.744, 21.504, -2.744, 1.01, 0, 0, 0, 1.0, 0, 0, 1, 1, 1, 8.966, 0, 1, 1, 0, 1, 0, 1, 0, 1, 0, 1
481, '1', 7.205, -2.205, 17.28, -2.205, 1.01, 0, 0, 0, 1.0, 0, 0, 1, 1, 1, 7.205, 0, 1, 1, 0, 1, 0, 1, 0, 1, 0, 1
482, '1', 7.205, -2.205, 17.28, -2.205, 1.01, 0, 0, 0, 1.0, 0, 0, 1, 1, 1, 7.205, 0, 1, 1, 0, 1, 0, 1, 0, 1, 0, 1
483, '1', 3.843, -1.176, 9.216, -1.176, 1.01, 0, 0, 0, 1.0, 0, 0, 1, 1, 1, 3.843, 0, 1, 1, 0, 1, 0, 1, 0, 1, 0, 1
484, '1', 4.483, -1.372, 10.752, -1.372, 1.01, 0, 0, 0, 1.0, 0, 0, 1, 1, 1, 4.483, 0, 1, 1, 0, 1, 0, 1, 0, 1, 0, 1
494, '1', 5.8, -0.708, 2.703, -0.708, 1.0249785, 0, 0, 0, 1.0, 0, 0, 1, 1, 1, 5.8, 1.74, 1, 1, 0, 1, 0, 1, 0, 1, 0, 1
497, '1', 9.607, -2.94, 23.04, -2.94, 1.0384198, 0, 0, 0, 1.0, 0, 0, 1, 1, 1, 9.607, 0, 1, 1, 0, 1, 0, 1, 0, 1, 0, 1
498, '1', 2.882, -0.882, 6.912, -0.882, 1.0319252, 0, 0, 0, 1.0, 0, 0, 1, 1, 1, 2.882, 0, 1, 1, 0, 1, 0, 1, 0, 1, 0, 1
0 / END OF GENERATOR DATA, BEGIN BRANCH DATA
2, 1, '1', 0.000530993, 0.00313968, 0, 76.5, 76.5, 76.5, 0, 0, 0, 0, 1, 1, 0, 1, 1, 0, 1, 0, 1, 0, 1
44, 1, '1', 0.00547862, 0.0502567, 0.0178098, 250, 250, 250, 0, 0, 0, 0, 1, 1, 0, 1, 1, 0, 1, 0, 1, 0, 1
421, 1, '1', 0.00536892, 0.0515552, 0.0166426, 200, 200, 200, 0, 0, 0, 0, 1, 1, 0, 1, 1, 0, 1, 0, 1, 0, 1
4, 3, '1', 0.000692061, 0.00351835, 0, 225.1, 225.1, 225.1, 0, 0, 0, 0, 1, 1, 0, 1, 1, 0, 1, 0, 1, 0, 1
62, 3, '1', 0.0027178, 0.0260978, 0.00842465, 250, 250, 250, 0, 0, 0, 0, 1, 1, 0, 1, 1, 0, 1, 0, 1, 0, 1
3, 479, '1', 0.00725845, 0.0696995, 0.0224998, 145, 145, 145, 0, 0, 0, 0, 1, 1, 0, 1, 1, 0, 1, 0, 1, 0, 1
6, 5, '1', 0.000555857, 0.00356302, 0, 4.5, 4.5, 4.5, 0, 0, 0, 0, 1, 1, 0, 1, 1, 0, 1, 0, 1, 0, 1
316, 5, '1', 0.00244518, 0.0234799, 0.00757958, 145, 145, 145, 0, 0, 0, 0, 1, 1, 0, 1, 1, 0, 1, 0, 1, 0, 1
401, 5, '1', 0.00488619, 0.0469198, 0.0151462, 145, 145, 145, 0, 0, 0, 0, 1, 1, 0, 1, 1, 0, 1, 0, 1, 0, 1
7, 232, '1', 0.00111912, 0.0148076, 0.312051, 1100, 1100, 1100, 0, 0, 0, 0, 1, 1, 0, 1, 1, 0, 1, 0, 1, 0, 1
7, 262, '1', 0.000946655, 0.0137492, 0.239936, 900, 900, 900, 0, 0, 0, 0, 1, 1, 0, 1, 1, 0, 1, 0, 1, 0, 1
8, 287, '1', 0.00372677, 0.0357864, 0.0115523, 300, 300, 300, 0, 0, 0, 0, 1, 1, 0, 1, 1, 0, 1, 0, 1, 0, 1
8, 457, '1', 0.00197391, 0.0189546, 0.00611875, 200, 200, 200, 0, 0, 0, 0, 1, 1, 0, 1, 1, 0, 1, 0, 1, 0, 1
11, 10, '1', 0.000654968, 0.00320079, 0, 4, 4, 4, 0, 0, 0, 0, 1, 1, 0, 1, 1, 0, 1, 0, 1, 0, 1
342, 10, '1', 0.00282453, 0.0271226, 0.00875548, 145, 145, 145, 0, 0, 0, 0, 1, 1, 0, 1, 1, 0, 1, 0, 1, 0, 1
10, 349, '1', 0.00140166, 0.0134595, 0.00434489, 145, 145, 145, 0, 0, 0, 0, 1, 1, 0, 1, 1, 0, 1, 0, 1, 0, 1
13, 12, '1', 0.000623092, 0.00313413, 0, 65.5, 65.5, 65.5, 0, 0, 0, 0, 1, 1, 0, 1, 1, 0, 1, 0, 1, 0, 1
12, 216, '1', 0.00396229, 0.038048, 0.0122823, 270, 270, 270, 0, 0, 0, 0, 1, 1, 0, 1, 1, 0, 1, 0, 1, 0, 1
12, 304, '1', 0.00231014, 0.0211915, 0.00750976, 290, 290, 290, 0, 0, 0, 0, 1, 1, 0, 1, 1, 0, 1, 0, 1, 0, 1
12, 441, '1', 0.00156469, 0.015025, 0.00485023, 280, 280, 280, 0, 0, 0, 0, 1, 1, 0, 1, 1, 0, 1, 0, 1, 0, 1
386, 14, '1', 0.000316955, 0.00454654, 0.0813632, 900, 900, 900, 0, 0, 0, 0, 1, 1, 0, 1, 1, 0, 1, 0, 1, 0, 1
386, 14, '2', 0.00032, 0.00455, 0.08136, 1200, 1200, 1200, 0, 0, 0, 0, 1, 1, 0, 1, 1, 0, 1, 0, 1, 0, 1
15, 91, '1', 0.00479928, 0.0460852, 0.0148768, 160, 160, 160, 0, 0, 0, 0, 1, 1, 0, 1, 1, 0, 1, 0, 1, 0, 1
15, 230, '1', 0.0108937, 0.104607, 0.0337685, 220, 220, 220, 0, 0, 0, 0, 1, 1, 0, 1, 1, 0, 1, 0, 1, 0, 1
367, 15, '1', 0.00191786, 0.0184163, 0.00594499, 330, 330, 330, 0, 0, 0, 0, 1, 1, 0, 1, 1, 0, 1, 0, 1, 0, 1
15, 369, '1', 0.00185435, 0.0170105, 0.0060281, 220, 220, 220, 0, 0, 0, 0, 1, 1, 0, 1, 1, 0, 1, 0, 1, 0, 1
15, 473, '1', 0.00922481, 0.0846215, 0.0299878, 145, 145, 145, 0, 0, 0, 0, 1, 1, 0, 1, 1, 0, 1, 0, 1, 0, 1
20, 19, '1', 0.000541213, 0.00388582, 0, 7.5, 7.5, 7.5, 0, 0, 0, 0, 1, 1, 0, 1, 1, 0, 1, 0, 1, 0, 1
19, 112, '1', 0.00472218, 0.0453449, 0.0146378, 145, 145, 145, 0, 0, 0, 0, 1, 1, 0, 1, 1, 0, 1, 0, 1, 0, 1
193, 19, '1', 0.00222052, 0.0213226, 0.00688319, 270, 270, 270, 0, 0, 0, 0, 1, 1, 0, 1, 1, 0, 1, 0, 1, 0, 1
19, 272, '1', 0.00229314, 0.0220199, 0.00710827, 205, 205, 205, 0, 0, 0, 0, 1, 1, 0, 1, 1, 0, 1, 0, 1, 0, 1
22, 21, '1', 0.000587223, 0.00317397, 0, 254.2, 254.2, 254.2, 0, 0, 0, 0, 1, 1, 0, 1, 1, 0, 1, 0, 1, 0, 1
21, 112, '1', 0.00509204, 0.0488965, 0.0157843, 270, 270, 270, 0, 0, 0, 0, 1, 1, 0, 1, 1, 0, 1, 0, 1, 0, 1
21, 196, '1', 0.00220719, 0.0202471, 0.00717509, 365, 365, 365, 0, 0, 0, 0, 1, 1, 0, 1, 1, 0, 1, 0, 1, 0, 1
151, 23, '1', 0.000181712, 0.00260656, 0.046646, 1050, 1050, 1050, 0, 0, 0, 0, 1, 1, 0, 1, 1, 0, 1, 0, 1, 0, 1
23, 386, '1', 0.001642, 0.023851, 0.416226, 1000, 1000, 1000, 0, 0, 0, 0, 1, 1, 0, 1, 1, 0, 1, 0, 1, 0, 1
23, 464, '1', 0.000947169, 0.0125324, 0.264105, 1000, 1000, 1000, 0, 0, 0, 0, 0, 1, 0, 1, 1, 0, 1, 0, 1, 0, 1
23, 471, '1', 0.000532103, 0.0070405, 0.14837, 1100, 1100, 1100, 0, 0, 0, 0, 1, 1, 0, 1, 1, 0, 1, 0, 1, 0, 1
25, 24, '1', 0.000613052, 0.00362887, 0, 3.6, 3.6, 3.6, 0, 0, 0, 0, 1, 1, 0, 1, 1, 0, 1, 0, 1, 0, 1
26, 24, '1', 0.000563017, 0.00372943, 0, 29.5, 29.5, 29.5, 0, 0, 0, 0, 1, 1, 0, 1, 1, 0, 1, 0, 1, 0, 1
210, 24, '1', 0.00221775, 0.020344, 0.00720941, 270, 270, 270, 0, 0, 0, 0, 1, 1, 0, 1, 1, 0, 1, 0, 1, 0, 1
24, 360, '1', 0.0023654, 0.0227138, 0.00733228, 240, 240, 240, 0, 0, 0, 0, 1, 1, 0, 1, 1, 0, 1, 0, 1, 0, 1
28, 27, '1', 0.000686715, 0.00396302, 0, 108.6, 108.6, 108.6, 0, 0, 0, 0, 1, 1, 0, 1, 1, 0, 1, 0, 1, 0, 1
27, 68, '1', 0.005607, 0.053845, 0.017382, 300, 300, 300, 0, 0, 0, 0, 1, 1, 0, 1, 1, 0, 1, 0, 1, 0, 1
27, 382, '1', 0.00336979, 0.0309119, 0.0109544, 185, 185, 185, 0, 0, 0, 0, 1, 1, 0, 1, 1, 0, 1, 0, 1, 0, 1
30, 29, '1', 0.000616364, 0.00329848, 0, 157, 157, 157, 0, 0, 0, 0, 1, 1, 0, 1, 1, 0, 1, 0, 1, 0, 1
454, 29, '1', 0.00246982, 0.0226563, 0.00802886, 300, 300, 300, 0, 0, 0, 0, 1, 1, 0, 1, 1, 0, 1, 0, 1, 0, 1
29, 491, '1', 0.005607, 0.053837, 0.017379, 145, 145, 145, 0, 0, 0, 0, 1, 1, 0, 1, 1, 0, 1, 0, 1, 0, 1
32, 31, '1', 0.000625228, 0.00342917, 0, 15.7, 15.7, 15.7, 0, 0, 0, 0, 1, 1, 0, 1, 1, 0, 1, 0, 1, 0, 1
31, 85, '1', 0.00530344, 0.0509265, 0.0164396, 300, 300, 300, 0, 0, 0, 0, 1, 1, 0, 1, 1, 0, 1, 0, 1, 0, 1
104, 31, '1', 0.00552581, 0.0530617, 0.0171289, 145, 145, 145, 0, 0, 0, 0, 1, 1, 0, 1, 1, 0, 1, 0, 1, 0, 1
31, 189, '1', 0.0057068, 0.0547997, 0.01769, 145, 145, 145, 0, 0, 0, 0, 1, 1, 0, 1, 1, 0, 1, 0, 1, 0, 1
31, 205, '1', 0.00779682, 0.0748692, 0.0241686, 145, 145, 145, 0, 0, 0, 0, 0, 1, 0, 1, 1, 0, 1, 0, 1, 0, 1
31, 218, '1', 0.00827343, 0.0794458, 0.025646, 145, 145, 145, 0, 0, 0, 0, 1, 1, 0, 1, 1, 0, 1, 0, 1, 0, 1
267, 31, '1', 0.00489674, 0.0470211, 0.0151789, 220, 220, 220, 0, 0, 0, 0, 1, 1, 0, 1, 1, 0, 1, 0, 1, 0, 1
34, 33, '1', 0.000624403, 0.00328363, 0, 43.4, 43.4, 43.4, 0, 0, 0, 0, 1, 1, 0, 1, 1, 0, 1, 0, 1, 0, 1
83, 33, '1', 0.00528651, 0.0507639, 0.0163871, 220, 220, 220, 0, 0, 0, 0, 1, 1, 0, 1, 1, 0, 1, 0, 1, 0, 1
112, 33, '1', 0.00706143, 0.0678076, 0.021889, 220, 220, 220, 0, 0, 0, 0, 1, 1, 0, 1, 1, 0, 1, 0, 1, 0, 1
36, 35, '1', 0.000582978, 0.00303006, 0, 62.9, 62.9, 62.9, 0, 0, 0, 0, 1, 1, 0, 1, 1, 0, 1, 0, 1, 0, 1
191, 35, '1', 0.00403801, 0.0370417, 0.0131267, 145, 145, 145, 0, 0, 0, 0, 1, 1, 0, 1, 1, 0, 1, 0, 1, 0, 1
35, 399, '1', 0.005636, 0.054123, 0.017472, 270, 270, 270, 0, 0, 0, 0, 1, 1, 0, 1, 1, 0, 1, 0, 1, 0, 1
38, 37, '1', 0.0005458, 0.00382289, 0, 0.2, 0.2, 0.2, 0, 0, 0, 0, 1, 1, 0, 1, 1, 0, 1, 0, 1, 0, 1
76, 37, '1', 0.00147415, 0.0141555, 0.00456957, 270, 270, 270, 0, 0, 0, 0, 1, 1, 0, 1, 1, 0, 1, 0, 1, 0, 1
37, 176, '1', 0.003039, 0.02918, 0.009419, 275, 275, 275, 0, 0, 0, 0, 1, 1, 0, 1, 1, 0, 1, 0, 1, 0, 1
39, 332, '1', 0.000403375, 0.00578618, 0.103547, 900, 900, 900, 0, 0, 0, 0, 0, 1, 0, 1, 1, 0, 1, 0, 1, 0, 1
39, 428, '1', 0.000521367, 0.00689845, 0.145376, 900, 900, 900, 0, 0, 0, 0, 1, 1, 0, 1, 1, 0, 1, 0, 1, 0, 1
41, 40, '1', 0.000631179, 0.00392265, 0, 97.5, 97.5, 97.5, 0, 0, 0, 0, 1, 1, 0, 1, 1, 0, 1, 0, 1, 0, 1
40, 131, '1', 0.00290861, 0.0266814, 0.00945527, 145, 145, 145, 0, 0, 0, 0, 1, 1, 0, 1, 1, 0, 1, 0, 1, 0, 1
43, 42, '1', 0.000541641, 0.00311887, 0, 7.7, 7.7, 7.7, 0, 0, 0, 0, 1, 1, 0, 1, 1, 0, 1, 0, 1, 0, 1
81, 42, '1', 0.00236124, 0.0216602, 0.00767586, 270, 270, 270, 0, 0, 0, 0, 1, 1, 0, 1, 1, 0, 1, 0, 1, 0, 1
42, 191, '1', 0.0063685, 0.0584198, 0.0207026, 270, 270, 270, 0, 0, 0, 0, 1, 1, 0, 1, 1, 0, 1, 0, 1, 0, 1
45, 44, '1', 0.000636537, 0.00387643, 0, 2.8, 2.8, 2.8, 0, 0, 0, 0, 1, 1, 0, 1, 1, 0, 1, 0, 1, 0, 1
44, 200, '1', 0.00210518, 0.0193113, 0.00684347, 250, 250, 250, 0, 0, 0, 0, 1, 1, 0, 1, 1, 0, 1, 0, 1, 0, 1
47, 46, '1', 0.000602161, 0.00345412, 0, 63, 63, 63, 0, 0, 0, 0, 1, 1, 0, 1, 1, 0, 1, 0, 1, 0, 1
46, 156, '1', 0.00661096, 0.0634819, 0.0204927, 185, 185, 185, 0, 0, 0, 0, 1, 1, 0, 1, 1, 0, 1, 0, 1, 0, 1
238, 46, '1', 0.00313385, 0.0300929, 0.00971433, 185, 185, 185, 0, 0, 0, 0, 1, 1, 0, 1, 1, 0, 1, 0, 1, 0, 1
51, 48, '1', 0.000657783, 0.00367224, 0, 0.6, 0.6, 0.6, 0, 0, 0, 0, 1, 1, 0, 1, 1, 0, 1, 0, 1, 0, 1
52, 48, '1', 0.00062, 0.00334229, 0, 37.9, 37.9, 37.9, 0, 0, 0, 0, 1, 1, 0, 1, 1, 0, 1, 0, 1, 0, 1
358, 48, '1', 0.00450039, 0.0412832, 0.0146298, 270, 270, 270, 0, 0, 0, 0, 1, 1, 0, 1, 1, 0, 1, 0, 1, 0, 1
419, 48, '1', 0.0046368, 0.044525, 0.0143732, 220, 220, 220, 0, 0, 0, 0, 1, 1, 0, 1, 1, 0, 1, 0, 1, 0, 1
54, 53, '1', 0.000680462, 0.00306134, 0, 51.3, 51.3, 51.3, 0, 0, 0, 0, 1, 1, 0, 1, 1, 0, 1, 0, 1, 0, 1
233, 53, '1', 0.00236198, 0.0216671, 0.0076783, 200, 200, 200, 0, 0, 0, 0, 1, 1, 0, 1, 1, 0, 1, 0, 1, 0, 1
53, 276, '1', 0.0015021, 0.0144239, 0.00465621, 200, 200, 200, 0, 0, 0, 0, 1, 1, 0, 1, 1, 0, 1, 0, 1, 0, 1
56, 55, '1', 0.000640992, 0.00331002, 0, 3.1, 3.1, 3.1, 0, 0, 0, 0, 1, 1, 0, 1, 1, 0, 1, 0, 1, 0, 1
55, 66, '1', 0.00432958, 0.041575, 0.0134209, 145, 145, 145, 0, 0, 0, 0, 1, 1, 0, 1, 1, 0, 1, 0, 1, 0, 1
55, 500, '1', 0.00448061, 0.0411018, 0.0145655, 145, 145, 145, 0, 0, 0, 0, 1, 1, 0, 1, 1, 0, 1, 0, 1, 0, 1
57, 123, '1', 0.001682, 0.024427, 0.426274, 1000, 1000, 1000, 0, 0, 0, 0, 1, 1, 0, 1, 1, 0, 1, 0, 1, 0, 1
440, 57, '1', 0.000600772, 0.00872563, 0.15227, 900, 900, 900, 0, 0, 0, 0, 1, 1, 0, 1, 1, 0, 1, 0, 1, 0, 1
59, 58, '1', 0.000620439, 0.00384844, 0, 252.9, 252.9, 252.9, 0, 0, 0, 0, 1, 1, 0, 1, 1, 0, 1, 0, 1, 0, 1
58, 253, '1', 0.00453214, 0.04352, 0.0140487, 200, 200, 200, 0, 0, 0, 0, 1, 1, 0, 1, 1, 0, 1, 0, 1, 0, 1
322, 58, '1', 0.00201876, 0.0193852, 0.00625775, 220, 220, 220, 0, 0, 0, 0, 1, 1, 0, 1, 1, 0, 1, 0, 1, 0, 1
322, 58, '2', 0.00202, 0.01939, 0.00626, 320.3, 320.3, 320.3, 0, 0, 0, 0, 1, 1, 0, 1, 1, 0, 1, 0, 1, 0, 1
61, 60, '1', 0.000528782, 0.00351793, 0, 0.3, 0.3, 0.3, 0, 0, 0, 0, 1, 1, 0, 1, 1, 0, 1, 0, 1, 0, 1
60, 131, '1', 0.0019849, 0.018208, 0.00645249, 185, 185, 185, 0, 0, 0, 0, 1, 1, 0, 1, 1, 0, 1, 0, 1, 0, 1
466, 60, '1', 0.00201135, 0.0193141, 0.00623481, 185, 185, 185, 0, 0, 0, 0, 1, 1, 0, 1, 1, 0, 1, 0, 1, 0, 1
64, 62, '1', 0.000661196, 0.00327389, 0, 45.6, 45.6, 45.6, 0, 0, 0, 0, 1, 1, 0, 1, 1, 0, 1, 0, 1, 0, 1
287, 62, '1', 0.00545324, 0.0523649, 0.016904, 160, 160, 160, 0, 0, 0, 0, 1, 1, 0, 1, 1, 0, 1, 0, 1, 0, 1
62, 457, '1', 0.00726746, 0.069786, 0.0225277, 200, 200, 200, 0, 0, 0, 0, 1, 1, 0, 1, 1, 0, 1, 0, 1, 0, 1
80, 65, '1', 0.000960188, 0.0137734, 0.246483, 1350, 1350, 1350, 0, 0, 0, 0, 1, 1, 0, 1, 1, 0, 1, 0, 1, 0, 1
65, 297, '1', 0.000919634, 0.0131916, 0.236073, 900, 900, 900, 0, 0, 0, 0, 1, 1, 0, 1, 1, 0, 1, 0, 1, 0, 1
67, 66, '1', 0.000661357, 0.00335859, 0, 6.7, 6.7, 6.7, 0, 0, 0, 0, 1, 1, 0, 1, 1, 0, 1, 0, 1, 0, 1
66, 308, '1', 0.00718043, 0.0689503, 0.0222579, 270, 270, 270, 0, 0, 0, 0, 1, 1, 0, 1, 1, 0, 1, 0, 1, 0, 1
69, 68, '1', 0.00066883, 0.00399823, 0, 27.6, 27.6, 27.6, 0, 0, 0, 0, 1, 1, 0, 1, 1, 0, 1, 0, 1, 0, 1
68, 295, '1', 0.00446902, 0.0409955, 0.0145278, 145, 145, 145, 0, 0, 0, 0, 0, 1, 0, 1, 1, 0, 1, 0, 1, 0, 1
68, 314, '1', 0.00180512, 0.0173337, 0.00559552, 220, 220, 220, 0, 0, 0, 0, 1, 1, 0, 1, 1, 0, 1, 0, 1, 0, 1
216, 70, '1', 0.00259564, 0.0238105, 0.00843787, 170, 170, 170, 0, 0, 0, 0, 1, 1, 0, 1, 1, 0, 1, 0, 1, 0, 1
70, 490, '1', 0.00212701, 0.0195116, 0.00691444, 170, 170, 170, 0, 0, 0, 0, 1, 1, 0, 1, 1, 0, 1, 0, 1, 0, 1
75, 74, '1', 0.00058441, 0.0033391, 0, 8.8, 8.8, 8.8, 0, 0, 0, 0, 1, 1, 0, 1, 1, 0, 1, 0, 1, 0, 1
74, 189, '1', 0.00563229, 0.0540843, 0.017459, 220, 220, 220, 0, 0, 0, 0, 1, 1, 0, 1, 1, 0, 1, 0, 1, 0, 1
240, 74, '1', 0.00443354, 0.04067, 0.0144125, 220, 220, 220, 0, 0, 0, 0, 1, 1, 0, 1, 1, 0, 1, 0, 1, 0, 1
77, 76, '1', 0.000695009, 0.00331266, 0, 12.2, 12.2, 12.2, 0, 0, 0, 0, 1, 1, 0, 1, 1, 0, 1, 0, 1, 0, 1
452, 76, '1', 0.002012, 0.019322, 0.006237, 330, 330, 330, 0, 0, 0, 0, 1, 1, 0, 1, 1, 0, 1, 0, 1, 0, 1
79, 78, '1', 0.000622277, 0.00327852, 0, 0.5, 0.5, 0.5, 0, 0, 0, 0, 1, 1, 0, 1, 1, 0, 1, 0, 1, 0, 1
78, 328, '1', 0.00543197, 0.0498288, 0.0176582, 260, 260, 260, 0, 0, 0, 0, 1, 1, 0, 1, 1, 0, 1, 0, 1, 0, 1
78, 387, '1', 0.00235449, 0.022609, 0.00729845, 260, 260, 260, 0, 0, 0, 0, 1, 1, 0, 1, 1, 0, 1, 0, 1, 0, 1
407, 80, '1', 0.000818, 0.010825, 0.228132, 1050, 1050, 1050, 0, 0, 0, 0, 1, 1, 0, 1, 1, 0, 1, 0, 1, 0, 1
149, 81, '1', 0.00287908, 0.0264105, 0.00935925, 145, 145, 145, 0, 0, 0, 0, 1, 1, 0, 1, 1, 0, 1, 0, 1, 0, 1
84, 83, '1', 0.000637555, 0.00365521, 0, 105.4, 105.4, 105.4, 0, 0, 0, 0, 1, 1, 0, 1, 1, 0, 1, 0, 1, 0, 1
83, 342, '1', 0.00411562, 0.0395203, 0.0127576, 145, 145, 145, 0, 0, 0, 0, 1, 1, 0, 1, 1, 0, 1, 0, 1, 0, 1
86, 85, '1', 0.00065231, 0.00390108, 0, 30, 30, 30, 0, 0, 0, 0, 1, 1, 0, 1, 1, 0, 1, 0, 1, 0, 1
272, 85, '1', 0.00441169, 0.0404695, 0.0143414, 270, 270, 270, 0, 0, 0, 0, 1, 1, 0, 1, 1, 0, 1, 0, 1, 0, 1
88, 87, '1', 0.000622526, 0.00356856, 0, 7.7, 7.7, 7.7, 0, 0, 0, 0, 1, 1, 0, 1, 1, 0, 1, 0, 1, 0, 1
87, 141, '1', 0.001846, 0.017727, 0.005723, 520, 520, 520, 0, 0, 0, 0, 1, 1, 0, 1, 1, 0, 1, 0, 1, 0, 1
87, 143, '1', 0.00382, 0.035043, 0.012419, 515, 515, 515, 0, 0, 0, 0, 1, 1, 0, 1, 1, 0, 1, 0, 1, 0, 1
423, 87, '1', 0.00183568, 0.0176272, 0.00569025, 270, 270, 270, 0, 0, 0, 0, 1, 1, 0, 1, 1, 0, 1, 0, 1, 0, 1
90, 89, '1', 0.000554087, 0.00386402, 0, 10.5, 10.5, 10.5, 0, 0, 0, 0, 1, 1, 0, 1, 1, 0, 1, 0, 1, 0, 1
89, 187, '1', 0.00211627, 0.0203216, 0.00656004, 145, 145, 145, 0, 0, 0, 0, 1, 1, 0, 1, 1, 0, 1, 0, 1, 0, 1
89, 457, '1', 0.009012, 0.082666, 0.029295, 145, 145, 145, 0, 0, 0, 0, 1, 1, 0, 1, 1, 0, 1, 0, 1, 0, 1
92, 91, '1', 0.0005717, 0.00361724, 0, 104.2, 104.2, 104.2, 0, 0, 0, 0, 1, 1, 0, 1, 1, 0, 1, 0, 1, 0, 1
91, 133, '1', 0.00504049, 0.0484015, 0.0156245, 270, 270, 270, 0, 0, 0, 0, 1, 1, 0, 1, 1, 0, 1, 0, 1, 0, 1
94, 93, '1', 0.000536047, 0.00328149, 0, 8.2, 8.2, 8.2, 0, 0, 0, 0, 1, 1, 0, 1, 1, 0, 1, 0, 1, 0, 1
269, 93, '1', 0.00392064, 0.035965, 0.0127451, 270, 270, 270, 0, 0, 0, 0, 1, 1, 0, 1, 1, 0, 1, 0, 1, 0, 1
336, 93, '1', 0.00579454, 0.0531548, 0.0188368, 270, 270, 270, 0, 0, 0, 0, 1, 1, 0, 1, 1, 0, 1, 0, 1, 0, 1
96, 95, '1', 0.00056273, 0.00325345, 0, 56.2, 56.2, 56.2, 0, 0, 0, 0, 1, 1, 0, 1, 1, 0, 1, 0, 1, 0, 1
95, 170, '1', 0.0021107, 0.020268, 0.00654275, 145, 145, 145, 0, 0, 0, 0, 1, 1, 0, 1, 1, 0, 1, 0, 1, 0, 1
95, 369, '1', 0.00409437, 0.0393163, 0.0126918, 270, 270, 270, 0, 0, 0, 0, 1, 1, 0, 1, 1, 0, 1, 0, 1, 0, 1
98, 97, '1', 0.000568811, 0.00398603, 0, 66.4, 66.4, 66.4, 0, 0, 0, 0, 1, 1, 0, 1, 1, 0, 1, 0, 1, 0, 1
181, 97, '1', 0.00299237, 0.0287344, 0.00927578, 145, 145, 145, 0, 0, 0, 0, 1, 1, 0, 1, 1, 0, 1, 0, 1, 0, 1
358, 97, '1', 0.00267648, 0.024552, 0.00870064, 270, 270, 270, 0, 0, 0, 0, 1, 1, 0, 1, 1, 0, 1, 0, 1, 0, 1
100, 99, '1', 0.000644448, 0.00362034, 0, 22.7, 22.7, 22.7, 0, 0, 0, 0, 1, 1, 0, 1, 1, 0, 1, 0, 1, 0, 1
101, 99, '1', 0.000699472, 0.00329389, 0, 1.4, 1.4, 1.4, 0, 0, 0, 0, 1, 1, 0, 1, 1, 0, 1, 0, 1, 0, 1
99, 465, '1', 0.0026889, 0.0258203, 0.00833507, 145, 145, 145, 0, 0, 0, 0, 1, 1, 0, 1, 1, 0, 1, 0, 1, 0, 1
472, 99, '1', 0.00331831, 0.0318642, 0.0102861, 145, 145, 145, 0, 0, 0, 0, 1, 1, 0, 1, 1, 0, 1, 0, 1, 0, 1
103, 102, '1', 0.000613984, 0.00387398, 0, 64.6, 64.6, 64.6, 0, 0, 0, 0, 1, 1, 0, 1, 1, 0, 1, 0, 1, 0, 1
102, 308, '1', 0.00564993, 0.0542537, 0.0175137, 270, 270, 270, 0, 0, 0, 0, 1, 1, 0, 1, 1, 0, 1, 0, 1, 0, 1
419, 102, '1', 0.00363843, 0.0349382, 0.0112784, 270, 270, 270, 0, 0, 0, 0, 1, 1, 0, 1, 1, 0, 1, 0, 1, 0, 1
105, 104, '1', 0.000672543, 0.00375095, 0, 144.2, 144.2, 144.2, 0, 0, 0, 0, 1, 1, 0, 1, 1, 0, 1, 0, 1, 0, 1
104, 191, '1', 0.00517651, 0.0474854, 0.0168277, 145, 145, 145, 0, 0, 0, 0, 1, 1, 0, 1, 1, 0, 1, 0, 1, 0, 1
107, 106, '1', 0.000574563, 0.00320633, 0, 24.5, 24.5, 24.5, 0, 0, 0, 0, 1, 1, 0, 1, 1, 0, 1, 0, 1, 0, 1
106, 191, '1', 0.00446795, 0.0429036, 0.0138498, 270, 270, 270, 0, 0, 0, 0, 1, 1, 0, 1, 1, 0, 1, 0, 1, 0, 1
236, 106, '1', 0.00311532, 0.029915, 0.00965689, 270, 270, 270, 0, 0, 0, 0, 1, 1, 0, 1, 1, 0, 1, 0, 1, 0, 1
109, 108, '1', 0.000658007, 0.00300957, 0, 62.9, 62.9, 62.9, 0, 0, 0, 0, 1, 1, 0, 1, 1, 0, 1, 0, 1, 0, 1
108, 472, '1', 0.00203292, 0.0195212, 0.00630167, 185, 185, 185, 0, 0, 0, 0, 1, 1, 0, 1, 1, 0, 1, 0, 1, 0, 1
108, 495, '1', 0.00361075, 0.0346724, 0.0111926, 220, 220, 220, 0, 0, 0, 0, 1, 1, 0, 1, 1, 0, 1, 0, 1, 0, 1
111, 110, '1', 0.000526841, 0.00370826, 0, 87, 87, 87, 0, 0, 0, 0, 1, 1, 0, 1, 1, 0, 1, 0, 1, 0, 1
274, 110, '1', 0.00312607, 0.0300181, 0.0096902, 220, 220, 220, 0, 0, 0, 0, 1, 1, 0, 1, 1, 0, 1, 0, 1, 0, 1
110, 316, '1', 0.00343915, 0.0330245, 0.0106607, 145, 145, 145, 0, 0, 0, 0, 1, 1, 0, 1, 1, 0, 1, 0, 1, 0, 1
113, 112, '1', 0.000644371, 0.00311935, 0, 73, 73, 73, 0, 0, 0, 0, 1, 1, 0, 1, 1, 0, 1, 0, 1, 0, 1
193, 112, '1', 0.00286733, 0.0275336, 0.00888817, 175, 175, 175, 0, 0, 0, 0, 1, 1, 0, 1, 1, 0, 1, 0, 1, 0, 1
112, 236, '1', 0.00632924, 0.0607768, 0.0196194, 300, 300, 300, 0, 0, 0, 0, 1, 1, 0, 1, 1, 0, 1, 0, 1, 0, 1
112, 283, '1', 0.00861853, 0.0827597, 0.0267158, 145, 145, 145, 0, 0, 0, 0, 1, 1, 0, 1, 1, 0, 1, 0, 1, 0, 1
372, 112, '1', 0.0020065, 0.0192675, 0.00621976, 285, 285, 285, 0, 0, 0, 0, 1, 1, 0, 1, 1, 0, 1, 0, 1, 0, 1
112, 499, '1', 0.0055765, 0.0511546, 0.018128, 220, 220, 220, 0, 0, 0, 0, 1, 1, 0, 1, 1, 0, 1, 0, 1, 0, 1
115, 114, '1', 0.000506233, 0.00336036, 0, 6.7, 6.7, 6.7, 0, 0, 0, 0, 1, 1, 0, 1, 1, 0, 1, 0, 1, 0, 1
116, 114, '1', 0.000505013, 0.00341051, 0, 5.3, 5.3, 5.3, 0, 0, 0, 0, 1, 1, 0, 1, 1, 0, 1, 0, 1, 0, 1
114, 191, '1', 0.00555724, 0.0533636, 0.0172264, 145, 145, 145, 0, 0, 0, 0, 1, 1, 0, 1, 1, 0, 1, 0, 1, 0, 1
114, 312, '1', 0.0066089, 0.0634622, 0.0204863, 145, 145, 145, 0, 0, 0, 0, 1, 1, 0, 1, 1, 0, 1, 0, 1, 0, 1
118, 117, '1', 0.000633836, 0.00385096, 0, 12.8, 12.8, 12.8, 0, 0, 0, 0, 1, 1, 0, 1, 1, 0, 1, 0, 1, 0, 1
117, 426, '1', 0.00317216, 0.029099, 0.010312, 145, 145, 145, 0, 0, 0, 0, 1, 1, 0, 1, 1, 0, 1, 0, 1, 0, 1
490, 117, '1', 0.00299873, 0.0275081, 0.0097482, 300, 300, 300, 0, 0, 0, 0, 1, 1, 0, 1, 1, 0, 1, 0, 1, 0, 1
120, 119, '1', 0.000556147, 0.00305904, 0, 46.6, 46.6, 46.6, 0, 0, 0, 0, 1, 1, 0, 1, 1, 0, 1, 0, 1, 0, 1
119, 129, '1', 0.00234965, 0.0215539, 0.0076382, 270, 270, 270, 0, 0, 0, 0, 1, 1, 0, 1, 1, 0, 1, 0, 1, 0, 1
253, 119, '1', 0.00149439, 0.0143499, 0.00463231, 250, 250, 250, 0, 0, 0, 0, 1, 1, 0, 1, 1, 0, 1, 0, 1, 0, 1
122, 121, '1', 0.000554934, 0.00384643, 0, 70.4, 70.4, 70.4, 0, 0, 0, 0, 1, 1, 0, 1, 1, 0, 1, 0, 1, 0, 1
121, 276, '1', 0.00254757, 0.0244631, 0.00789698, 145, 145, 145, 0, 0, 0, 0, 1, 1, 0, 1, 1, 0, 1, 0, 1, 0, 1
121, 287, '1', 0.00708754, 0.0680583, 0.02197, 145, 145, 145, 0, 0, 0, 0, 1, 1, 0, 1, 1, 0, 1, 0, 1, 0, 1
165, 123, '1', 0.000216027, 0.00313758, 0.0547534, 900, 900, 900, 0, 0, 0, 0, 1, 1, 0, 1, 1, 0, 1, 0, 1, 0, 1
124, 260, '1', 0.00203952, 0.0187091, 0.00663005, 220, 220, 220, 0, 0, 0, 0, 1, 1, 0, 1, 1, 0, 1, 0, 1, 0, 1
124, 369, '1', 0.00769284, 0.0705683, 0.0250077, 225, 225, 225, 0, 0, 0, 0, 1, 1, 0, 1, 1, 0, 1, 0, 1, 0, 1
130, 129, '1', 0.000698008, 0.00322102, 0, 166, 166, 166, 0, 0, 0, 0, 1, 1, 0, 1, 1, 0, 1, 0, 1, 0, 1
304, 129, '1', 0.00306297, 0.0294122, 0.0094946, 195, 195, 195, 0, 0, 0, 0, 1, 1, 0, 1, 1, 0, 1, 0, 1, 0, 1
324, 129, '1', 0.00187843, 0.0172313, 0.00610636, 195, 195, 195, 0, 0, 0, 0, 1, 1, 0, 1, 1, 0, 1, 0, 1, 0, 1
132, 131, '1', 0.000673258, 0.00361521, 0, 41.6, 41.6, 41.6, 0, 0, 0, 0, 1, 1, 0, 1, 1, 0, 1, 0, 1, 0, 1
131, 333, '1', 0.00222709, 0.0213857, 0.00690355, 300, 300, 300, 0, 0, 0, 0, 1, 1, 0, 1, 1, 0, 1, 0, 1, 0, 1
134, 133, '1', 0.000515032, 0.00308264, 0, 66, 66, 66, 0, 0, 0, 0, 1, 1, 0, 1, 1, 0, 1, 0, 1, 0, 1
133, 226, '1', 0.00644015, 0.0590771, 0.0209355, 145, 145, 145, 0, 0, 0, 0, 1, 1, 0, 1, 1, 0, 1, 0, 1, 0, 1
133, 369, '1', 0.00615507, 0.056462, 0.0200088, 300, 300, 300, 0, 0, 0, 0, 1, 1, 0, 1, 1, 0, 1, 0, 1, 0, 1
473, 133, '1', 0.00475466, 0.0456568, 0.0147385, 145, 145, 145, 0, 0, 0, 0, 1, 1, 0, 1, 1, 0, 1, 0, 1, 0, 1
136, 135, '1', 0.000548777, 0.0036604, 0, 45.6, 45.6, 45.6, 0, 0, 0, 0, 1, 1, 0, 1, 1, 0, 1, 0, 1, 0, 1
135, 287, '1', 0.00756782, 0.0694215, 0.0246013, 300, 300, 300, 0, 0, 0, 0, 1, 1, 0, 1, 1, 0, 1, 0, 1, 0, 1
135, 457, '1', 0.00686487, 0.0629732, 0.0223162, 220, 220, 220, 0, 0, 0, 0, 1, 1, 0, 1, 1, 0, 1, 0, 1, 0, 1
138, 137, '1', 0.000555555, 0.00378798, 0, 122.9, 122.9, 122.9, 0, 0, 0, 0, 1, 1, 0, 1, 1, 0, 1, 0, 1, 0, 1
137, 214, '1', 0.00312011, 0.029961, 0.00967175, 200, 200, 200, 0, 0, 0, 0, 1, 1, 0, 1, 1, 0, 1, 0, 1, 0, 1
137, 426, '1', 0.00299838, 0.028792, 0.00929439, 145, 145, 145, 0, 0, 0, 0, 1, 1, 0, 1, 1, 0, 1, 0, 1, 0, 1
137, 426, '2', 0.003, 0.02879, 0.00929, 320.3, 320.3, 320.3, 0, 0, 0, 0, 1, 1, 0, 1, 1, 0, 1, 0, 1, 0, 1
140, 139, '1', 0.000600197, 0.00318213, 0, 0.4, 0.4, 0.4, 0, 0, 0, 0, 1, 1, 0, 1, 1, 0, 1, 0, 1, 0, 1
139, 376, '1', 0.00267603, 0.0256967, 0.00829519, 185, 185, 185, 0, 0, 0, 0, 1, 1, 0, 1, 1, 0, 1, 0, 1, 0, 1
429, 139, '1', 0.00146772, 0.0140938, 0.00454964, 185, 185, 185, 0, 0, 0, 0, 1, 1, 0, 1, 1, 0, 1, 0, 1, 0, 1
142, 141, '1', 0.000686707, 0.00341671, 0, 209.8, 209.8, 209.8, 0, 0, 0, 0, 1, 1, 0, 1, 1, 0, 1, 0, 1, 0, 1
300, 141, '1', 0.00267026, 0.024495, 0.00868044, 430, 430, 430, 0, 0, 0, 0, 1, 1, 0, 1, 1, 0, 1, 0, 1, 0, 1
...
0 / END OF BRANCH DATA, BEGIN TRANSFORMER DATA
8, 7, 0, '1', 1, 1, 1, 0, 0, 2, ' ', 1, 1, 1, 0, 1, 0, 1, 0, 1, ' '
0.000355062, 0.0129, 567
1, 138, 0, 567, 567, 567, 0, 0, 1.5, .51, 1.5, .51, 159, 0, 0, 0, 0
1, 345
9, 7, 0, '1', 1, 1, 1, 0, 0, 2, ' ', 1, 1, 1, 0, 1, 0, 1, 0, 1, ' '
0.00012, 0.01362, 900
1, 13.8, 0, 900, 900, 900, 0, 0, 1.5, .51, 1.5, .51, 159, 0, 0, 0, 0
1, 345
9, 7, 0, '2', 1, 1, 1, 0, 0, 2, ' ', 1, 1, 1, 0, 1, 0, 1, 0, 1, ' '
0.00012, 0.01362, 900
1, 13.8, 0, 900, 900, 900, 0, 0, 1.5, .51, 1.5, .51, 159, 0, 0, 0, 0
1, 345
15, 14, 0, '1', 1, 1, 1, 0, 0, 2, ' ', 1, 1, 1, 0, 1, 0, 1, 0, 1, ' '
0.000207947, 0.01122, 682
1, 138, 0, 682, 682, 682, 0, 0, 1.5, .51, 1.5, .51, 159, 0, 0, 0, 0
1, 345
16, 14, 0, '1', 1, 1, 1, 0, 0, 2, ' ', 1, 1, 1, 0, 1, 0, 1, 0, 1, ' '
0.000325948, 0.01202, 596
1, 13.8, 0, 596, 596, 596, 0, 0, 1.5, .51, 1.5, .51, 159, 0, 0, 0, 0
1, 345
17, 14, 0, '1', 1, 1, 1, 0, 0, 2, ' ', 1, 1, 1, 0, 1, 0, 1, 0, 1, ' '
0.000279, 0.01438, 930
1, 13.8, 0, 930, 930, 930, 0, 0, 1.5, .51, 1.5, .51, 159, 0, 0, 0, 0
1, 345
17, 14, 0, '2', 1, 1, 1, 0, 0, 2, ' ', 1, 1, 1, 0, 1, 0, 1, 0, 1, ' '
0.000354, 0.01438, 930
1, 13.8, 0, 930, 930, 930, 0, 0, 1.5, .51, 1.5, .51, 159, 0, 0, 0, 0
1, 345
18, 14, 0, '1', 1, 1, 1, 0, 0, 2, ' ', 1, 1, 1, 0, 1, 0, 1, 0, 1, ' '
0.00141719, 0.05115, 340
1, 13.8, 0, 340, 340, 340, 0, 0, 1.5, .51, 1.5, .51, 159, 0, 0, 0, 0
1, 345
24, 23, 0, '1', 1, 1, 1, 0, 0, 2, ' ', 1, 1, 1, 0, 1, 0, 1, 0, 1, ' '
0.00033, 0.01764, 626
1, 138, 0, 626, 626, 626, 0, 0, 1.5, .51, 1.5, .51, 159, 0, 0, 0, 0
1, 345
40, 39, 0, '1', 1, 1, 1, 0, 0, 2, ' ', 1, 1, 1, 0, 1, 0, 1, 0, 1, ' '
0.0007, 0.02531, 428
1, 138, 0, 428, 428, 428, 0, 0, 1.5, .51, 1.5, .51, 159, 0, 0, 0, 0
1, 345
49, 48, 0, '1', 1, 1, 1, 0, 0, 2, ' ', 1, 1, 1, 0, 1, 0, 1, 0, 1, ' '
0.01331, 0.27853, 57
1, 13.8, 0, 57, 57, 57, 0, 0, 1.5, .51, 1.5, .51, 159, 0, 0, 0, 0
1, 138
50, 48, 0, '1', 1, 1, 1, 0, 0, 2, ' ', 1, 1, 1, 0, 1, 0, 1, 0, 1, ' '
0.00715, 0.16356, 100
1, 13.8, 0, 100, 100, 100, 0, 0, 1.5, .51, 1.5, .51, 159, 0, 0, 0, 0
1, 138
58, 57, 0, '1', 1, 1, 1, 0, 0, 2, ' ', 1, 1, 1, 0, 1, 0, 1, 0, 1, ' '
0.00012, 0.01762, 675
1, 138, 0, 675, 675, 675, 0, 0, 1.5, .51, 1.5, .51, 159, 0, 0, 0, 0
1, 345
58, 57, 0, '2', 1, 1, 1, 0, 0, 2, ' ', 1, 1, 1, 0, 1, 0, 1, 0, 1, ' '
0.00012, 0.01762, 675
1, 138, 0, 675, 675, 675, 0, 0, 1.5, .51, 1.5, .51, 159, 0, 0, 0, 0
1, 345
63, 62, 0, '1', 1, 1, 1, 0, 0, 2, ' ', 1, 1, 1, 0, 1, 0, 1, 0, 1, ' '
0.0032, 0.16353, 70
1, 13.8, 0, 70, 70, 70, 0, 0, 1.5, .51, 1.5, .51, 159, 0, 0, 0, 0
1, 138
66, 65, 0, '1', 1, 1, 1, 0, 0, 2, ' ', 1, 1, 1, 0, 1, 0, 1, 0, 1, ' '
0.000807929, 0.03088, 405
1, 138, 0, 405, 405, 405, 0, 0, 1.5, .51, 1.5, .51, 159, 0, 0, 0, 0
1, 345
71, 70, 0, '1', 1, 1, 1, 0, 0, 2, ' ', 1, 1, 1, 0, 1, 0, 1, 0, 1, ' '
0.00103, 0.04472, 133
1, 13.8, 0, 133, 133, 133, 0, 0, 1.5, .51, 1.5, .51, 159, 0, 0, 0, 0
1, 138
...